Using: /usr/local/packages/synopsys_2015/hspice/hspice/linux64/hspice sram_writehh_power.sp
 ****** HSPICE -- K-2015.06-SP2 linux64 (Nov 18 2015) ******                    
  Copyright (c) 1986 - 2020 by Synopsys, Inc. All Rights Reserved.              
  This software and the associated documentation are proprietary
  to Synopsys, Inc. This software may only be used in accordance
  with the terms and conditions of a written license agreement with
  Synopsys, Inc. All other use, reproduction, or distribution of
  this software is strictly prohibited.
  Input File: sram_writehh_power.sp                                             
  Command line options: /usr/local/packages/synopsys_2015/hspice/hspice/linux64/hspice sram_writehh_power.sp
 lic:  
 lic: FLEXlm: v11.2.1 
 lic: USER:   aarora1              HOSTNAME: luigi 
 lic: HOSTID: "782bcb44a06e"       PID:      49085 
 lic: Using FLEXlm license file: 
 lic: /usr/local/packages/synopsys_2015/key 
 lic: Checkout 1 hspice 
 lic: License/Maintenance for hspice will expire on 14-jan-2021/2019.06 
 lic: 2(in_use)/100(total) FLOATING license(s) on SERVER /usr/local/packages/synopsys_2015/key 
 lic:   
 Init: read install configuration file: /usr/local/packages/synopsys_2015/hspice/hspice/meta.cfg
  **info** (sram_writehh_power.sp:17) DC voltage reset to initial transient source value in source        0:vprecharge. new dc=  0.1000D+01
  **warning** (nmos:mntgate (../basic_subcircuits.l:162)) Warning:  Acde = 0.245565 may be too small in BSIM4 model with w=2e-07 l=2.2e-08.
  **warning** (sram_writehh_power.sp:3383) Unable to find referenced node xprechargesa.n_1_2; Output variable ignored. Specify a valid node.
  

  **warning** the following singular supplies were terminated to 1 meg resistor 
          supply       node1            node2
(../process_data.l:39)vclmomtjn               0:vclmpmtj         defined in subckt 0                     0:0                defined in subckt 0               
(../process_data.l:34)vsupply                 0:vdd              defined in subckt 0                     0:0                defined in subckt 0               
(../process_data.l:38)vrefmtjn                0:vrefmtj          defined in subckt 0                     0:0                defined in subckt 0               
(../process_data.l:37)vsram                   0:vsram            defined in subckt 0                     0:0                defined in subckt 0               
(../process_data.l:40)vsram_n                 0:vsram_n          defined in subckt 0                     0:0                defined in subckt 0               
      
 **info** set option symb=1 internally to help for convergence.
 *****************************************************************
 ******  option summary
 ******
 runlvl  = 3         bypass  = 2         
 **info** dc convergence successful at Newton-Raphson method 

   *** data name = sweep_data , index =     1 ***

 ******
 .title sram write power measurement circuit

 ****** transient analysis tnom=  25.000 temp=  25.000 ******
x

 time         voltage    voltage    voltage    voltage   
             tgate_l    tgate_r    n_bl_0     n_bl_128   
    0.        853.8684m   29.5141m  999.9987m  970.9159m 
    1.00000p  848.5436m   32.3026m  978.5014m  969.8591m 
    2.00000p  841.2775m   35.7802m  964.7066m  966.8520m 
    3.00000p  833.5103m   39.3645m  953.3038m  962.6650m 
    4.00000p  825.6529m   42.9367m  944.2946m  957.0203m 
    5.00000p  817.7955m   46.5090m  935.2854m  951.3756m 
    6.00000p  811.5024m   49.5600m  928.0036m  945.0203m 
    7.00000p  805.3607m   52.5606m  920.8889m  938.5961m 
    8.00000p  799.2190m   55.5612m  913.7742m  932.1719m 
    9.00000p  794.7627m   58.2662m  907.2459m  926.0733m 
   10.00000p  792.1628m   60.6455m  901.3634m  920.3331m 
   11.00000p  789.5628m   63.0249m  895.4810m  914.5929m 
   12.00000p  786.9628m   65.4042m  889.5985m  908.8527m 
   13.00000p  785.3744m   67.6844m  884.1308m  903.3654m 
   14.00000p  787.1895m   69.6306m  880.0588m  898.7292m 
   15.00000p  789.0046m   71.5769m  875.9867m  894.0930m 
   16.00000p  790.8197m   73.5232m  871.9147m  889.4568m 
   17.00000p  792.6348m   75.4695m  867.8427m  884.8206m 
   18.00000p  794.4499m   77.4158m  863.7707m  880.1844m 
   19.00000p  796.2650m   79.3621m  859.6987m  875.5482m 
   20.00000p  798.9020m   81.7234m  856.6979m  871.7689m 
   21.00000p  802.2031m   84.4200m  854.5626m  868.6817m 
   22.00000p  805.5042m   87.1166m  852.4273m  865.5945m 
   23.00000p  808.8053m   89.8132m  850.2920m  862.5073m 
   24.00000p  812.1064m   92.5098m  848.1567m  859.4201m 
   25.00000p  815.4075m   95.2064m  846.0215m  856.3329m 
   26.00000p  818.7085m   97.9030m  843.8862m  853.2458m 
   27.00000p  820.8572m  103.3331m  843.2589m  851.4986m 
   28.00000p  822.6548m  109.5961m  843.0912m  850.1596m 
   29.00000p  824.4524m  115.8591m  842.9235m  848.8207m 
   30.00000p  826.2500m  122.1221m  842.7558m  847.4818m 
   31.00000p  828.0476m  128.3851m  842.5880m  846.1428m 
   32.00000p  829.8452m  134.6480m  842.4203m  844.8039m 
   33.00000p  831.6428m  140.9110m  842.2526m  843.4650m 
   34.00000p  832.8163m  151.2324m  842.4622m  843.0271m 
   35.00000p  833.6826m  163.5504m  842.8574m  843.0324m 
   36.00000p  834.5490m  175.8683m  843.2526m  843.0378m 
   37.00000p  835.4154m  188.1862m  843.6478m  843.0431m 
   38.00000p  836.2817m  200.5042m  844.0430m  843.0485m 
   39.00000p  837.1481m  212.8221m  844.4382m  843.0538m 
   40.00000p  838.0145m  225.1400m  844.8334m  843.0592m 
   41.00000p  838.6867m  238.4536m  844.9758m  843.0327m 
   42.00000p  838.6186m  255.5645m  844.1540m  842.8849m 
   43.00000p  838.5505m  272.6754m  843.3321m  842.7371m 
   44.00000p  838.4824m  289.7863m  842.5103m  842.5893m 
   45.00000p  838.4142m  306.8973m  841.6884m  842.4415m 
   46.00000p  838.3461m  324.0082m  840.8665m  842.2937m 
   47.00000p  838.2780m  341.1191m  840.0447m  842.1459m 
   48.00000p  838.2098m  358.2300m  839.2228m  841.9981m 
   49.00000p  838.1417m  375.3409m  838.4010m  841.8503m 
   50.00000p  838.0736m  392.4518m  837.5791m  841.7025m 
   51.00000p  839.0966m  410.9012m  839.8452m  842.3754m 
   52.00000p  840.1196m  429.3505m  842.1112m  843.0482m 
   53.00000p  841.1425m  447.7998m  844.3773m  843.7211m 
   54.00000p  842.1655m  466.2492m  846.6433m  844.3940m 
   55.00000p  843.1885m  484.6985m  848.9094m  845.0668m 
   56.00000p  844.4163m  504.2103m  851.2828m  845.9181m 
   57.00000p  845.9695m  524.8264m  853.8708m  847.1072m 
   58.00000p  848.0808m  547.1998m  856.8374m  848.8887m 
   59.00000p  850.1922m  569.5733m  859.8039m  850.6703m 
   60.00000p  852.3036m  591.9467m  862.7705m  852.4518m 
   61.00000p  854.4150m  614.3201m  865.7370m  854.2334m 
   62.00000p  857.0647m  635.7098m  869.0227m  856.6113m 
   63.00000p  860.1765m  656.2549m  872.5824m  859.5011m 
   64.00000p  863.2883m  676.8001m  876.1421m  862.3909m 
   65.00000p  866.4001m  697.3452m  879.7018m  865.2807m 
   66.00000p  869.5119m  717.8904m  883.2615m  868.1706m 
   67.00000p  872.6789m  737.7476m  886.8320m  871.1234m 
   68.00000p  876.3066m  751.8625m  890.4926m  874.6024m 
   69.00000p  879.9342m  765.9775m  894.1531m  878.0813m 
   70.00000p  883.5619m  780.0925m  897.8137m  881.5602m 
   71.00000p  887.1896m  794.2074m  901.4742m  885.0391m 
   72.00000p  890.8173m  808.3224m  905.1348m  888.5181m 
   73.00000p  894.4233m  820.8807m  908.6924m  892.0088m 
   74.00000p  897.9787m  829.8108m  912.0099m  895.5272m 
   75.00000p  901.5342m  838.7409m  915.3275m  899.0455m 
   76.00000p  905.0896m  847.6710m  918.6450m  902.5639m 
   77.00000p  908.6451m  856.6012m  921.9625m  906.0822m 
   78.00000p  912.2006m  865.5313m  925.2801m  909.6006m 
   79.00000p  915.7560m  874.4614m  928.5976m  913.1189m 
   80.00000p  919.1959m  882.6775m  931.7703m  916.5371m 
   81.00000p  922.2339m  888.4103m  934.4389m  919.6071m 
   82.00000p  925.2719m  894.1431m  937.1076m  922.6770m 
   83.00000p  928.3099m  899.8760m  939.7762m  925.7469m 
   84.00000p  931.3480m  905.6088m  942.4449m  928.8169m 
   85.00000p  934.3860m  911.3416m  945.1135m  931.8868m 
   86.00000p  937.4240m  917.0745m  947.7822m  934.9568m 
   87.00000p  940.4620m  922.8073m  950.4508m  938.0267m 
   88.00000p  943.0332m  927.1426m  952.6733m  940.6550m 
   89.00000p  945.2870m  930.5277m  954.5924m  942.9829m 
   90.00000p  947.5408m  933.9127m  956.5115m  945.3108m 
   91.00000p  949.7946m  937.2978m  958.4306m  947.6388m 
   92.00000p  952.0485m  940.6829m  960.3497m  949.9667m 
   93.00000p  954.3023m  944.0680m  962.2688m  952.2946m 
   94.00000p  956.5561m  947.4531m  964.1879m  954.6226m 
   95.00000p  958.8099m  950.8381m  966.1070m  956.9505m 
   96.00000p  961.0637m  954.2232m  968.0261m  959.2784m 
   97.00000p  963.2794m  957.5349m  969.9115m  961.5679m 
   98.00000p  964.6808m  959.2804m  971.0775m  963.0355m 
   99.00000p  966.0823m  961.0260m  972.2436m  964.5032m 
  100.00000p  967.4838m  962.7715m  973.4096m  965.9709m 
  101.00000p  968.8853m  964.5170m  974.5757m  967.4386m 
  102.00000p  970.2868m  966.2626m  975.7417m  968.9063m 
  103.00000p  971.6882m  968.0081m  976.9077m  970.3740m 
  104.00000p  973.0897m  969.7537m  978.0738m  971.8417m 
  105.00000p  974.4912m  971.4992m  979.2398m  973.3094m 
  106.00000p  975.8927m  973.2447m  980.4059m  974.7771m 
  107.00000p  977.2942m  974.9903m  981.5719m  976.2448m 
  108.00000p  978.6956m  976.7358m  982.7379m  977.7125m 
  109.00000p  980.0971m  978.4813m  983.9040m  979.1802m 
  110.00000p  981.2405m  979.8699m  984.8516m  980.3806m 
  111.00000p  981.9559m  980.6663m  985.4370m  981.1376m 
  112.00000p  982.6713m  981.4627m  986.0224m  981.8946m 
  113.00000p  983.3866m  982.2591m  986.6078m  982.6516m 
  114.00000p  984.1020m  983.0555m  987.1932m  983.4086m 
  115.00000p  984.8174m  983.8520m  987.7786m  984.1656m 
  116.00000p  985.5328m  984.6484m  988.3640m  984.9225m 
  117.00000p  986.2481m  985.4448m  988.9494m  985.6795m 
  118.00000p  986.9635m  986.2412m  989.5348m  986.4365m 
  119.00000p  987.6789m  987.0377m  990.1202m  987.1935m 
  120.00000p  988.3943m  987.8341m  990.7056m  987.9505m 
  121.00000p  989.1096m  988.6305m  991.2910m  988.7075m 
  122.00000p  989.8250m  989.4269m  991.8765m  989.4645m 
  123.00000p  990.5404m  990.2233m  992.4619m  990.2215m 
  124.00000p  991.2172m  990.9755m  993.0156m  990.9377m 
  125.00000p  991.5151m  991.2918m  993.2582m  991.2524m 
  126.00000p  991.8129m  991.6081m  993.5007m  991.5670m 
  127.00000p  992.1108m  991.9245m  993.7433m  991.8816m 
  128.00000p  992.4087m  992.2408m  993.9859m  992.1963m 
  129.00000p  992.7065m  992.5571m  994.2284m  992.5109m 
  130.00000p  993.0044m  992.8735m  994.4710m  992.8255m 
  131.00000p  993.3022m  993.1898m  994.7135m  993.1402m 
  132.00000p  993.6001m  993.5061m  994.9561m  993.4548m 
  133.00000p  993.8980m  993.8225m  995.1986m  993.7694m 
  134.00000p  994.1958m  994.1388m  995.4412m  994.0841m 
  135.00000p  994.4937m  994.4552m  995.6838m  994.3987m 
  136.00000p  994.7915m  994.7715m  995.9263m  994.7134m 
  137.00000p  995.0894m  995.0878m  996.1689m  995.0280m 
  138.00000p  995.3873m  995.4042m  996.4114m  995.3426m 
  139.00000p  995.6851m  995.7205m  996.6540m  995.6573m 
  140.00000p  995.9830m  996.0368m  996.8966m  995.9719m 
  141.00000p  996.2808m  996.3532m  997.1391m  996.2865m 
  142.00000p  996.5787m  996.6695m  997.3817m  996.6012m 
  143.00000p  996.8766m  996.9858m  997.6242m  996.9158m 
  144.00000p  997.0636m  997.1836m  997.7758m  997.1131m 
  145.00000p  997.1495m  997.2732m  997.8444m  997.2033m 
  146.00000p  997.2354m  997.3628m  997.9129m  997.2935m 
  147.00000p  997.3212m  997.4523m  997.9814m  997.3837m 
  148.00000p  997.4071m  997.5419m  998.0499m  997.4738m 
  149.00000p  997.4930m  997.6314m  998.1184m  997.5640m 
  150.00000p  997.5788m  997.7210m  998.1870m  997.6542m 
  151.00000p  997.6647m  997.8105m  998.2555m  997.7444m 
  152.00000p  997.7506m  997.9001m  998.3240m  997.8346m 
  153.00000p  997.8364m  997.9896m  998.3925m  997.9247m 
  154.00000p  997.9223m  998.0792m  998.4611m  998.0149m 
  155.00000p  998.0082m  998.1687m  998.5296m  998.1051m 
  156.00000p  998.0940m  998.2583m  998.5981m  998.1953m 
  157.00000p  998.1799m  998.3478m  998.6666m  998.2855m 
  158.00000p  998.2658m  998.4374m  998.7352m  998.3757m 
  159.00000p  998.3516m  998.5269m  998.8037m  998.4658m 
  160.00000p  998.4375m  998.6165m  998.8722m  998.5560m 
  161.00000p  998.5234m  998.7060m  998.9407m  998.6462m 
  162.00000p  998.6092m  998.7956m  999.0093m  998.7364m 
  163.00000p  998.6951m  998.8851m  999.0778m  998.8266m 
  164.00000p  998.7810m  998.9747m  999.1463m  998.9167m 
  165.00000p  998.8668m  999.0642m  999.2148m  999.0069m 
  166.00000p  998.9527m  999.1538m  999.2834m  999.0971m 
  167.00000p  999.0386m  999.2433m  999.3519m  999.1873m 
  168.00000p  999.1103m  999.3177m  999.4090m  999.2623m 
  169.00000p  999.1294m  999.3354m  999.4239m  999.2808m 
  170.00000p  999.1485m  999.3532m  999.4387m  999.2993m 
  171.00000p  999.1676m  999.3709m  999.4536m  999.3179m 
  172.00000p  999.1867m  999.3887m  999.4684m  999.3364m 
  173.00000p  999.2059m  999.4064m  999.4833m  999.3550m 
  174.00000p  999.2250m  999.4241m  999.4981m  999.3735m 
  175.00000p  999.2441m  999.4419m  999.5130m  999.3920m 
  176.00000p  999.2632m  999.4596m  999.5278m  999.4106m 
  177.00000p  999.2823m  999.4774m  999.5427m  999.4291m 
  178.00000p  999.3014m  999.4951m  999.5575m  999.4476m 
  179.00000p  999.3205m  999.5129m  999.5724m  999.4662m 
  180.00000p  999.3397m  999.5306m  999.5872m  999.4847m 
  181.00000p  999.3588m  999.5484m  999.6021m  999.5033m 
  182.00000p  999.3779m  999.5661m  999.6169m  999.5218m 
  183.00000p  999.3970m  999.5839m  999.6318m  999.5403m 
  184.00000p  999.4161m  999.6016m  999.6466m  999.5589m 
  185.00000p  999.4352m  999.6194m  999.6615m  999.5774m 
  186.00000p  999.4543m  999.6371m  999.6763m  999.5959m 
  187.00000p  999.4735m  999.6549m  999.6912m  999.6145m 
  188.00000p  999.4926m  999.6726m  999.7060m  999.6330m 
  189.00000p  999.5117m  999.6904m  999.7209m  999.6515m 
  190.00000p  999.5308m  999.7081m  999.7357m  999.6701m 
  191.00000p  999.5499m  999.7259m  999.7506m  999.6886m 
  192.00000p  999.5690m  999.7436m  999.7654m  999.7072m 
  193.00000p  999.5881m  999.7613m  999.7803m  999.7257m 
  194.00000p  999.6072m  999.7791m  999.7951m  999.7442m 
  195.00000p  999.6264m  999.7968m  999.8100m  999.7628m 
  196.00000p  999.6455m  999.8146m  999.8248m  999.7813m 
  197.00000p  999.6646m  999.8323m  999.8397m  999.7998m 
  198.00000p  999.6837m  999.8501m  999.8545m  999.8184m 
  199.00000p  999.7028m  999.8678m  999.8694m  999.8369m 
  200.00000p  999.7219m  999.8856m  999.8842m  999.8555m 
  201.00000p  999.7410m  999.9033m  999.8991m  999.8740m 
  202.00000p  999.7503m  999.9115m  999.9058m  999.8828m 
  203.00000p  999.7526m  999.9129m  999.9069m  999.8847m 
  204.00000p  999.7550m  999.9143m  999.9080m  999.8866m 
  205.00000p  999.7573m  999.9157m  999.9090m  999.8884m 
  206.00000p  999.7596m  999.9171m  999.9101m  999.8903m 
  207.00000p  999.7619m  999.9185m  999.9112m  999.8922m 
  208.00000p  999.7643m  999.9199m  999.9122m  999.8941m 
  209.00000p  999.7666m  999.9213m  999.9133m  999.8960m 
  210.00000p  999.7689m  999.9226m  999.9143m  999.8979m 
  211.00000p  999.7712m  999.9240m  999.9154m  999.8998m 
  212.00000p  999.7736m  999.9254m  999.9165m  999.9017m 
  213.00000p  999.7759m  999.9268m  999.9175m  999.9035m 
  214.00000p  999.7782m  999.9282m  999.9186m  999.9054m 
  215.00000p  999.7805m  999.9296m  999.9196m  999.9073m 
  216.00000p  999.7829m  999.9310m  999.9207m  999.9092m 
  217.00000p  999.7852m  999.9324m  999.9218m  999.9111m 
  218.00000p  999.7875m  999.9338m  999.9228m  999.9130m 
  219.00000p  999.7898m  999.9352m  999.9239m  999.9149m 
  220.00000p  999.7922m  999.9366m  999.9249m  999.9168m 
  221.00000p    1.0002     1.0003     1.0006     1.0003  
  222.00000p    1.0013     1.0014     1.0023     1.0011  
  223.00000p    1.0023     1.0024     1.0041     1.0020  
  224.00000p    1.0034     1.0034     1.0058     1.0028  
  225.00000p    1.0044     1.0045     1.0075     1.0036  
  226.00000p    1.0055     1.0055     1.0090     1.0046  
  227.00000p    1.0066     1.0066     1.0103     1.0055  
  228.00000p    1.0077     1.0076     1.0114     1.0065  
  229.00000p    1.0087     1.0086     1.0123     1.0076  
  230.00000p    1.0098     1.0096     1.0133     1.0086  
  231.00000p    1.0108     1.0106     1.0143     1.0097  
  232.00000p    1.0119     1.0117     1.0152     1.0108  
  233.00000p    1.0130     1.0127     1.0162     1.0118  
  234.00000p    1.0137     1.0137     1.0170     1.0127  
  235.00000p    1.0134     1.0146     1.0173     1.0129  
  236.00000p    1.0131     1.0155     1.0176     1.0132  
  237.00000p    1.0128     1.0164     1.0180     1.0135  
  238.00000p    1.0126     1.0173     1.0183     1.0138  
  239.00000p    1.0123     1.0182     1.0186     1.0140  
  240.00000p    1.0120     1.0191     1.0190     1.0143  
  241.00000p    1.0118     1.0200     1.0193     1.0146  
  242.00000p    1.0115     1.0209     1.0197     1.0149  
  243.00000p    1.0112     1.0218     1.0200     1.0151  
  244.00000p    1.0109     1.0227     1.0203     1.0154  
  245.00000p    1.0107     1.0236     1.0207     1.0157  
  246.00000p    1.0104     1.0245     1.0210     1.0160  
  247.00000p    1.0101     1.0254     1.0213     1.0162  
  248.00000p    1.0099     1.0263     1.0217     1.0165  
  249.00000p    1.0096     1.0272     1.0220     1.0168  
  250.00000p    1.0093     1.0281     1.0224     1.0171  
  251.00000p    1.0091     1.0290     1.0227     1.0173  
  252.00000p    1.0088     1.0299     1.0230     1.0176  
  253.00000p    1.0085     1.0308     1.0234     1.0179  
  254.00000p    1.0071     1.0316     1.0233     1.0178  
  255.00000p    1.0006     1.0324     1.0216     1.0164  
  256.00000p  994.2072m    1.0333     1.0198     1.0150  
  257.00000p  987.7796m    1.0341     1.0181     1.0136  
  258.00000p  981.3520m    1.0349     1.0163     1.0122  
  259.00000p  974.9244m    1.0357     1.0146     1.0108  
  260.00000p  968.4967m    1.0365     1.0129     1.0094  
  261.00000p  962.0691m    1.0373     1.0111     1.0080  
  262.00000p  952.9190m    1.0379     1.0076     1.0052  
  263.00000p  941.8457m    1.0385     1.0029     1.0013  
  264.00000p  930.7724m    1.0390   998.1800m  997.3668m 
  265.00000p  919.6990m    1.0395   993.4598m  993.4659m 
  266.00000p  908.6257m    1.0400   988.7396m  989.5649m 
  267.00000p  897.5524m    1.0405   984.0193m  985.6639m 
  268.00000p  886.4791m    1.0410   979.2991m  981.7630m 
  269.00000p  875.4058m    1.0416   974.5789m  977.8620m 
  270.00000p  864.3325m    1.0421   969.8586m  973.9611m 
  271.00000p  853.8024m    1.0423   964.0436m  969.0618m 
  272.00000p  844.0871m    1.0419   956.5864m  962.6649m 
  273.00000p  834.3717m    1.0416   949.1293m  956.2681m 
  274.00000p  824.6564m    1.0413   941.6721m  949.8713m 
  275.00000p  814.9411m    1.0410   934.2149m  943.4745m 
  276.00000p  805.3022m    1.0406   926.8973m  937.0616m 
  277.00000p  795.8148m    1.0403   919.6915m  930.5642m 
  278.00000p  786.8147m    1.0401   912.6838m  923.7441m 
  279.00000p  777.8146m    1.0398   905.6761m  916.9240m 
  280.00000p  768.8145m    1.0396   898.6684m  910.1039m 
  281.00000p  759.8145m    1.0394   891.6607m  903.2838m 
  282.00000p  751.0193m    1.0392   884.7172m  896.4566m 
  283.00000p  742.5072m    1.0390   877.8624m  889.6196m 
  284.00000p  733.9950m    1.0389   871.0076m  882.7825m 
  285.00000p  725.4829m    1.0387   864.1528m  875.9454m 
  286.00000p  716.9708m    1.0386   857.2980m  869.1084m 
  287.00000p  708.4586m    1.0385   850.4432m  862.2713m 
  288.00000p  699.8782m    1.0383   843.7405m  855.5258m 
  289.00000p  691.2812m    1.0382   837.0745m  848.8024m 
  290.00000p  682.6843m    1.0380   830.4084m  842.0790m 
  291.00000p  674.0874m    1.0378   823.7423m  835.3555m 
  292.00000p  665.4905m    1.0377   817.0762m  828.6321m 
  293.00000p  656.8935m    1.0375   810.4102m  821.9087m 
  294.00000p  648.1745m    1.0374   803.8242m  815.2600m 
  295.00000p  639.2448m    1.0372   797.3765m  808.7405m 
  296.00000p  630.3151m    1.0370   790.9287m  802.2210m 
  297.00000p  621.3853m    1.0369   784.4810m  795.7015m 
  298.00000p  612.4556m    1.0367   778.0333m  789.1820m 
  299.00000p  603.5259m    1.0365   771.5856m  782.6625m 
  300.00000p  594.5962m    1.0363   765.1379m  776.1430m 
  301.00000p  585.6633m    1.0362   758.7001m  769.6344m 
  302.00000p  576.6627m    1.0360   752.4736m  763.3600m 
  303.00000p  567.6621m    1.0358   746.2471m  757.0856m 
  304.00000p  558.6616m    1.0357   740.0206m  750.8112m 
  305.00000p  549.6610m    1.0355   733.7942m  744.5368m 
  306.00000p  540.6604m    1.0353   727.5677m  738.2623m 
  307.00000p  531.6599m    1.0351   721.3412m  731.9879m 
  308.00000p  522.6593m    1.0350   715.1147m  725.7135m 
  309.00000p  513.6587m    1.0348   708.8883m  719.4391m 
  310.00000p  504.6582m    1.0346   702.6618m  713.1646m 
  311.00000p  495.6576m    1.0345   696.4353m  706.8902m 
  312.00000p  488.6504m    1.0343   690.1468m  700.6953m 
  313.00000p  481.8865m    1.0341   683.8507m  694.5100m 
  314.00000p  475.1226m    1.0339   677.5546m  688.3247m 
  315.00000p  468.3587m    1.0338   671.2586m  682.1394m 
  316.00000p  461.5948m    1.0336   664.9625m  675.9542m 
  317.00000p  454.8309m    1.0334   658.6664m  669.7689m 
  318.00000p  448.0670m    1.0333   652.3703m  663.5836m 
  319.00000p  441.3031m    1.0331   646.0743m  657.3984m 
  320.00000p  434.5392m    1.0329   639.7782m  651.2131m 
  321.00000p  427.7753m    1.0328   633.4821m  645.0278m 
  322.00000p  421.0114m    1.0326   627.1860m  638.8426m 
  323.00000p  414.2475m    1.0324   620.8899m  632.6573m 
  324.00000p  407.4836m    1.0323   614.5939m  626.4720m 
  325.00000p  400.7197m    1.0321   608.2978m  620.2868m 
  326.00000p  394.4304m    1.0319   602.0026m  614.0943m 
  327.00000p  390.6311m    1.0318   595.7122m  607.8638m 
  328.00000p  386.8318m    1.0316   589.4218m  601.6333m 
  329.00000p  383.0325m    1.0315   583.1314m  595.4028m 
  330.00000p  379.2332m    1.0313   576.8411m  589.1723m 
  331.00000p  375.4339m    1.0312   570.5507m  582.9418m 
  332.00000p  371.6346m    1.0310   564.2603m  576.7113m 
  333.00000p  367.8353m    1.0309   557.9699m  570.4808m 
  334.00000p  364.0360m    1.0307   551.6795m  564.2503m 
  335.00000p  360.2367m    1.0306   545.3891m  558.0198m 
  336.00000p  356.4374m    1.0304   539.0987m  551.7893m 
  337.00000p  352.6382m    1.0303   532.8083m  545.5588m 
  338.00000p  348.8389m    1.0301   526.5179m  539.3282m 
  339.00000p  345.0396m    1.0300   520.2275m  533.0977m 
  340.00000p  341.2403m    1.0298   513.9371m  526.8672m 
  341.00000p  337.4410m    1.0297   507.6467m  520.6367m 
  342.00000p  334.3114m    1.0295   501.9530m  514.8993m 
  343.00000p  331.4187m    1.0294   496.4704m  509.3362m 
  344.00000p  328.5261m    1.0293   490.9878m  503.7732m 
  345.00000p  325.6334m    1.0291   485.5052m  498.2102m 
  346.00000p  322.7408m    1.0290   480.0226m  492.6471m 
  347.00000p  319.8481m    1.0289   474.5400m  487.0841m 
  348.00000p  316.9555m    1.0287   469.0574m  481.5211m 
  349.00000p  314.0628m    1.0286   463.5747m  475.9580m 
  350.00000p  311.1702m    1.0284   458.0921m  470.3950m 
  351.00000p  308.2775m    1.0283   452.6095m  464.8320m 
  352.00000p  305.3849m    1.0282   447.1269m  459.2689m 
  353.00000p  302.4922m    1.0280   441.6443m  453.7059m 
  354.00000p  299.5996m    1.0279   436.1617m  448.1429m 
  355.00000p  296.7069m    1.0278   430.6791m  442.5798m 
  356.00000p  293.8143m    1.0276   425.1965m  437.0168m 
  357.00000p  290.9216m    1.0275   419.7139m  431.4538m 
  358.00000p  288.0290m    1.0274   414.2313m  425.8907m 
  359.00000p  285.1363m    1.0272   408.7486m  420.3277m 
  360.00000p  282.2437m    1.0271   403.2660m  414.7647m 
  361.00000p  279.3510m    1.0270   397.7834m  409.2016m 
  362.00000p  276.4584m    1.0268   392.3008m  403.6386m 
  363.00000p  273.5657m    1.0267   386.8182m  398.0756m 
  364.00000p  270.6731m    1.0265   381.3356m  392.5126m 
  365.00000p  267.7804m    1.0264   375.8530m  386.9495m 
  366.00000p  264.8878m    1.0263   370.3704m  381.3865m 
  367.00000p  261.9951m    1.0261   364.8878m  375.8235m 
  368.00000p  259.1025m    1.0260   359.4052m  370.2604m 
  369.00000p  256.2098m    1.0259   353.9226m  364.6974m 
  370.00000p  253.3172m    1.0257   348.4399m  359.1344m 
  371.00000p  250.4245m    1.0256   342.9573m  353.5713m 
  372.00000p  247.5319m    1.0255   337.4747m  348.0083m 
  373.00000p  244.6392m    1.0253   331.9921m  342.4453m 
  374.00000p  241.7466m    1.0252   326.5095m  336.8822m 
  375.00000p  238.8539m    1.0251   321.0269m  331.3192m 
  376.00000p  235.9613m    1.0249   315.5443m  325.7562m 
  377.00000p  233.0686m    1.0248   310.0617m  320.1931m 
  378.00000p  230.1601m    1.0247   304.7096m  314.7540m 
  379.00000p  227.1285m    1.0245   300.3678m  310.2737m 
  380.00000p  224.0969m    1.0244   296.0260m  305.7933m 
  381.00000p  221.0653m    1.0243   291.6841m  301.3130m 
  382.00000p  218.0338m    1.0242   287.3423m  296.8326m 
  383.00000p  215.0022m    1.0241   283.0005m  292.3523m 
  384.00000p  211.9706m    1.0240   278.6586m  287.8720m 
  385.00000p  208.9391m    1.0238   274.3168m  283.3916m 
  386.00000p  205.9075m    1.0237   269.9750m  278.9113m 
  387.00000p  202.8759m    1.0236   265.6331m  274.4309m 
  388.00000p  199.8444m    1.0235   261.2913m  269.9506m 
  389.00000p  196.8128m    1.0234   256.9495m  265.4702m 
  390.00000p  193.7812m    1.0233   252.6076m  260.9899m 
  391.00000p  190.7497m    1.0232   248.2658m  256.5096m 
  392.00000p  187.7181m    1.0230   243.9240m  252.0292m 
  393.00000p  184.6865m    1.0229   239.5821m  247.5489m 
  394.00000p  181.8850m    1.0228   235.6969m  243.5419m 
  395.00000p  179.4449m    1.0227   232.5288m  240.2783m 
  396.00000p  177.0047m    1.0226   229.3606m  237.0146m 
  397.00000p  174.5645m    1.0225   226.1924m  233.7510m 
  398.00000p  172.1243m    1.0224   223.0243m  230.4874m 
  399.00000p  169.6841m    1.0223   219.8561m  227.2238m 
  400.00000p  167.2439m    1.0222   216.6879m  223.9601m 
  401.00000p  164.8037m    1.0221   213.5198m  220.6965m 
  402.00000p  162.3635m    1.0220   210.3516m  217.4329m 
  403.00000p  159.9233m    1.0219   207.1835m  214.1692m 
  404.00000p  157.4831m    1.0218   204.0153m  210.9056m 
  405.00000p  155.0429m    1.0217   200.8471m  207.6420m 
  406.00000p  152.6028m    1.0216   197.6790m  204.3784m 
  407.00000p  150.1626m    1.0214   194.5108m  201.1147m 
  408.00000p  147.7224m    1.0213   191.3426m  197.8511m 
  409.00000p  145.2822m    1.0212   188.1745m  194.5875m 
  410.00000p  142.8420m    1.0211   185.0063m  191.3238m 
  411.00000p  140.4018m    1.0210   181.8381m  188.0602m 
  412.00000p  137.9616m    1.0209   178.6700m  184.7966m 
  413.00000p  135.5214m    1.0208   175.5018m  181.5330m 
  414.00000p  133.0812m    1.0207   172.3337m  178.2693m 
  415.00000p  130.6410m    1.0206   169.1655m  175.0057m 
  416.00000p  128.2009m    1.0205   165.9973m  171.7421m 
  417.00000p  125.7607m    1.0204   162.8292m  168.4785m 
  418.00000p  123.3205m    1.0203   159.6610m  165.2148m 
  419.00000p  120.8803m    1.0202   156.4928m  161.9512m 
  420.00000p  118.4401m    1.0201   153.3247m  158.6876m 
  421.00000p  115.9999m    1.0200   150.1565m  155.4239m 
  422.00000p  113.5597m    1.0199   146.9884m  152.1603m 
  423.00000p  111.1195m    1.0198   143.8202m  148.8967m 
  424.00000p  108.6793m    1.0197   140.6520m  145.6331m 
  425.00000p  106.2391m    1.0196   137.4839m  142.3694m 
  426.00000p  103.7990m    1.0195   134.3157m  139.1058m 
  427.00000p  102.2917m    1.0194   132.3517m  137.0749m 
  428.00000p  100.8363m    1.0193   130.4545m  135.1124m 
  429.00000p   99.3809m    1.0192   128.5574m  133.1499m 
  430.00000p   97.9255m    1.0191   126.6602m  131.1874m 
  431.00000p   96.4701m    1.0190   124.7630m  129.2250m 
  432.00000p   95.0147m    1.0189   122.8659m  127.2625m 
  433.00000p   93.5593m    1.0188   120.9687m  125.3000m 
  434.00000p   92.1038m    1.0187   119.0716m  123.3375m 
  435.00000p   90.6484m    1.0187   117.1744m  121.3750m 
  436.00000p   89.1930m    1.0186   115.2772m  119.4125m 
  437.00000p   87.7376m    1.0185   113.3801m  117.4501m 
  438.00000p   86.2822m    1.0184   111.4829m  115.4876m 
  439.00000p   84.8268m    1.0183   109.5857m  113.5251m 
  440.00000p   83.3714m    1.0182   107.6886m  111.5626m 
  441.00000p   81.9159m    1.0181   105.7914m  109.6001m 
  442.00000p   80.4605m    1.0180   103.8942m  107.6376m 
  443.00000p   79.0051m    1.0180   101.9971m  105.6751m 
  444.00000p   77.5497m    1.0179   100.0999m  103.7127m 
  445.00000p   76.0943m    1.0178    98.2028m  101.7502m 
  446.00000p   74.6389m    1.0177    96.3056m   99.7877m 
  447.00000p   73.1835m    1.0176    94.4084m   97.8252m 
  448.00000p   71.7280m    1.0175    92.5113m   95.8627m 
  449.00000p   70.2726m    1.0174    90.6141m   93.9002m 
  450.00000p   68.8172m    1.0173    88.7169m   91.9378m 
  451.00000p   67.3618m    1.0172    86.8198m   89.9753m 
  452.00000p   65.9064m    1.0172    84.9226m   88.0128m 
  453.00000p   64.4510m    1.0171    83.0255m   86.0503m 
  454.00000p   62.9956m    1.0170    81.1283m   84.0878m 
  455.00000p   61.5402m    1.0169    79.2311m   82.1253m 
  456.00000p   60.0847m    1.0168    77.3340m   80.1629m 
  457.00000p   58.6293m    1.0167    75.4368m   78.2004m 
  458.00000p   57.7541m    1.0166    74.3157m   77.0390m 
  459.00000p   56.9503m    1.0166    73.2902m   75.9764m 
  460.00000p   56.1466m    1.0165    72.2648m   74.9137m 
  461.00000p   55.3429m    1.0164    71.2393m   73.8511m 
  462.00000p   54.5391m    1.0163    70.2138m   72.7884m 
  463.00000p   53.7354m    1.0163    69.1883m   71.7258m 
  464.00000p   52.9316m    1.0162    68.1629m   70.6632m 
  465.00000p   52.1279m    1.0161    67.1374m   69.6005m 
  466.00000p   51.3241m    1.0160    66.1119m   68.5379m 
  467.00000p   50.5204m    1.0160    65.0865m   67.4752m 
  468.00000p   49.7166m    1.0159    64.0610m   66.4126m 
  469.00000p   48.9129m    1.0158    63.0355m   65.3499m 
  470.00000p   48.1091m    1.0157    62.0100m   64.2873m 
  471.00000p   47.3054m    1.0157    60.9846m   63.2246m 
  472.00000p   46.5017m    1.0156    59.9591m   62.1620m 
  473.00000p   45.6979m    1.0155    58.9336m   61.0994m 
  474.00000p   44.8942m    1.0154    57.9081m   60.0367m 
  475.00000p   44.0904m    1.0154    56.8827m   58.9741m 
  476.00000p   43.2867m    1.0153    55.8572m   57.9114m 
  477.00000p   42.4829m    1.0152    54.8317m   56.8488m 
  478.00000p   41.6792m    1.0151    53.8063m   55.7861m 
  479.00000p   40.8754m    1.0151    52.7808m   54.7235m 
  480.00000p   40.0717m    1.0150    51.7553m   53.6608m 
  481.00000p   39.2680m    1.0149    50.7298m   52.5982m 
  482.00000p   38.4642m    1.0148    49.7044m   51.5355m 
  483.00000p   37.6605m    1.0148    48.6789m   50.4729m 
  484.00000p   36.8567m    1.0147    47.6534m   49.4103m 
  485.00000p   36.0530m    1.0146    46.6279m   48.3476m 
  486.00000p   35.2492m    1.0145    45.6025m   47.2850m 
  487.00000p   34.4455m    1.0145    44.5770m   46.2223m 
  488.00000p   33.6417m    1.0144    43.5515m   45.1597m 
  489.00000p   32.8380m    1.0143    42.5261m   44.0970m 
  490.00000p   32.0342m    1.0142    41.5006m   43.0344m 
  491.00000p   31.2305m    1.0142    40.4751m   41.9717m 
  492.00000p   30.4268m    1.0141    39.4496m   40.9091m 
  493.00000p   29.6230m    1.0140    38.4242m   39.8465m 
  494.00000p   28.8193m    1.0140    37.3987m   38.7838m 
  495.00000p   28.0155m    1.0139    36.3732m   37.7212m 
  496.00000p   27.2118m    1.0138    35.3477m   36.6585m 
  497.00000p   26.7186m    1.0137    34.7077m   35.9954m 
  498.00000p   26.3504m    1.0137    34.2228m   35.4930m 
  499.00000p   25.9822m    1.0136    33.7379m   34.9906m 
  500.00000p   25.6141m    1.0136    33.2530m   34.4883m 
  501.00000p   25.2459m    1.0135    32.7681m   33.9859m 
  502.00000p   24.8777m    1.0134    32.2832m   33.4835m 
  503.00000p   24.5095m    1.0134    31.7983m   32.9811m 
  504.00000p   24.1413m    1.0133    31.3134m   32.4788m 
  505.00000p   23.7731m    1.0132    30.8285m   31.9764m 
  506.00000p   23.4049m    1.0132    30.3436m   31.4740m 
  507.00000p   23.0367m    1.0131    29.8587m   30.9717m 
  508.00000p   22.6686m    1.0131    29.3738m   30.4693m 
  509.00000p   22.3004m    1.0130    28.8889m   29.9669m 
  510.00000p   21.9322m    1.0129    28.4040m   29.4645m 
  511.00000p   21.5640m    1.0129    27.9191m   28.9622m 
  512.00000p   21.1958m    1.0128    27.4342m   28.4598m 
  513.00000p   20.8276m    1.0128    26.9493m   27.9574m 
  514.00000p   20.4594m    1.0127    26.4644m   27.4550m 
  515.00000p   20.0913m    1.0126    25.9795m   26.9527m 
  516.00000p   19.7231m    1.0126    25.4946m   26.4503m 
  517.00000p   19.3549m    1.0125    25.0097m   25.9479m 
  518.00000p   18.9867m    1.0124    24.5248m   25.4456m 
  519.00000p   18.6185m    1.0124    24.0399m   24.9432m 
  520.00000p   18.2503m    1.0123    23.5550m   24.4408m 
  521.00000p   17.8821m    1.0123    23.0701m   23.9384m 
  522.00000p   17.5140m    1.0122    22.5852m   23.4361m 
  523.00000p   17.1458m    1.0121    22.1003m   22.9337m 
  524.00000p   16.7776m    1.0121    21.6154m   22.4313m 
  525.00000p   16.4094m    1.0120    21.1305m   21.9290m 
  526.00000p   16.0412m    1.0120    20.6456m   21.4266m 
  527.00000p   15.6730m    1.0119    20.1607m   20.9242m 
  528.00000p   15.3048m    1.0118    19.6758m   20.4218m 
  529.00000p   14.9367m    1.0118    19.1909m   19.9195m 
  530.00000p   14.5685m    1.0117    18.7060m   19.4171m 
  531.00000p   14.2003m    1.0116    18.2211m   18.9147m 
  532.00000p   13.8321m    1.0116    17.7362m   18.4123m 
  533.00000p   13.4639m    1.0115    17.2513m   17.9100m 
  534.00000p   13.0957m    1.0115    16.7664m   17.4076m 
  535.00000p   12.7275m    1.0114    16.2815m   16.9052m 
  536.00000p   12.5060m    1.0113    15.9981m   16.6108m 
  537.00000p   12.3325m    1.0113    15.7806m   16.3844m 
  538.00000p   12.1590m    1.0112    15.5631m   16.1580m 
  539.00000p   11.9855m    1.0112    15.3456m   15.9316m 
  540.00000p   11.8120m    1.0111    15.1281m   15.7052m 
  541.00000p   11.6385m    1.0111    14.9106m   15.4788m 
  542.00000p   11.4650m    1.0110    14.6931m   15.2524m 
  543.00000p   11.2915m    1.0110    14.4756m   15.0259m 
  544.00000p   11.1179m    1.0109    14.2581m   14.7995m 
  545.00000p   10.9444m    1.0109    14.0406m   14.5731m 
  546.00000p   10.7709m    1.0108    13.8231m   14.3467m 
  547.00000p   10.5974m    1.0108    13.6056m   14.1203m 
  548.00000p   10.4239m    1.0107    13.3882m   13.8939m 
  549.00000p   10.2504m    1.0107    13.1707m   13.6675m 
  550.00000p   10.0769m    1.0106    12.9532m   13.4411m 
  551.00000p    9.9034m    1.0106    12.7357m   13.2147m 
  552.00000p    9.7298m    1.0105    12.5182m   12.9883m 
  553.00000p    9.5563m    1.0105    12.3007m   12.7619m 
  554.00000p    9.3828m    1.0104    12.0832m   12.5355m 
  555.00000p    9.2093m    1.0104    11.8657m   12.3091m 
  556.00000p    9.0358m    1.0103    11.6482m   12.0827m 
  557.00000p    8.8623m    1.0103    11.4307m   11.8563m 
  558.00000p    8.6888m    1.0102    11.2132m   11.6298m 
  559.00000p    8.5153m    1.0102    10.9957m   11.4034m 
  560.00000p    8.3417m    1.0101    10.7782m   11.1770m 
  561.00000p    8.1682m    1.0101    10.5607m   10.9506m 
  562.00000p    7.9947m    1.0100    10.3432m   10.7242m 
  563.00000p    7.8212m    1.0100    10.1257m   10.4978m 
  564.00000p    7.6477m    1.0099     9.9082m   10.2714m 
  565.00000p    7.4742m    1.0099     9.6907m   10.0450m 
  566.00000p    7.3007m    1.0098     9.4732m    9.8186m 
  567.00000p    7.1272m    1.0098     9.2558m    9.5922m 
  568.00000p    6.9537m    1.0097     9.0383m    9.3658m 
  569.00000p    6.7801m    1.0097     8.8208m    9.1394m 
  570.00000p    6.6066m    1.0096     8.6033m    8.9130m 
  571.00000p    6.4331m    1.0096     8.3858m    8.6866m 
  572.00000p    6.2596m    1.0095     8.1683m    8.4602m 
  573.00000p    6.0861m    1.0095     7.9508m    8.2337m 
  574.00000p    5.9126m    1.0094     7.7333m    8.0073m 
  575.00000p    5.7391m    1.0094     7.5158m    7.7809m 
  576.00000p    5.5656m    1.0093     7.2983m    7.5545m 
  577.00000p    5.3920m    1.0093     7.0808m    7.3281m 
  578.00000p    5.2185m    1.0092     6.8633m    7.1017m 
  579.00000p    5.0450m    1.0092     6.6458m    6.8753m 
  580.00000p    4.9523m    1.0091     6.5242m    6.7495m 
  581.00000p    4.8902m    1.0091     6.4389m    6.6618m 
  582.00000p    4.8281m    1.0091     6.3536m    6.5740m 
  583.00000p    4.7659m    1.0090     6.2683m    6.4863m 
  584.00000p    4.7038m    1.0090     6.1830m    6.3986m 
  585.00000p    4.6417m    1.0089     6.0977m    6.3108m 
  586.00000p    4.5795m    1.0089     6.0123m    6.2231m 
  587.00000p    4.5174m    1.0089     5.9270m    6.1353m 
  588.00000p    4.4553m    1.0088     5.8417m    6.0476m 
  589.00000p    4.3931m    1.0088     5.7564m    5.9598m 
  590.00000p    4.3310m    1.0087     5.6711m    5.8721m 
  591.00000p    4.2689m    1.0087     5.5858m    5.7844m 
  592.00000p    4.2067m    1.0087     5.5005m    5.6966m 
  593.00000p    4.1446m    1.0086     5.4151m    5.6089m 
  594.00000p    4.0825m    1.0086     5.3298m    5.5211m 
  595.00000p    4.0203m    1.0085     5.2445m    5.4334m 
  596.00000p    3.9582m    1.0085     5.1592m    5.3457m 
  597.00000p    3.8961m    1.0085     5.0739m    5.2579m 
  598.00000p    3.8339m    1.0084     4.9886m    5.1702m 
  599.00000p    3.7718m    1.0084     4.9032m    5.0824m 
  600.00000p    3.7097m    1.0083     4.8179m    4.9947m 
  601.00000p    3.6475m    1.0083     4.7326m    4.9069m 
  602.00000p    3.5854m    1.0083     4.6473m    4.8192m 
  603.00000p    3.5233m    1.0082     4.5620m    4.7315m 
  604.00000p    3.4612m    1.0082     4.4767m    4.6437m 
  605.00000p    3.3990m    1.0081     4.3914m    4.5560m 
  606.00000p    3.3369m    1.0081     4.3060m    4.4682m 
  607.00000p    3.2748m    1.0081     4.2207m    4.3805m 
  608.00000p    3.2126m    1.0080     4.1354m    4.2928m 
  609.00000p    3.1505m    1.0080     4.0501m    4.2050m 
  610.00000p    3.0884m    1.0079     3.9648m    4.1173m 
  611.00000p    3.0262m    1.0079     3.8795m    4.0295m 
  612.00000p    2.9641m    1.0079     3.7942m    3.9418m 
  613.00000p    2.9020m    1.0078     3.7088m    3.8540m 
  614.00000p    2.8398m    1.0078     3.6235m    3.7663m 
  615.00000p    2.7777m    1.0077     3.5382m    3.6786m 
  616.00000p    2.7156m    1.0077     3.4529m    3.5908m 
  617.00000p    2.6534m    1.0077     3.3676m    3.5031m 
  618.00000p    2.5913m    1.0076     3.2823m    3.4153m 
  619.00000p    2.5292m    1.0076     3.1970m    3.3276m 
  620.00000p    2.4670m    1.0075     3.1116m    3.2399m 
  621.00000p    2.4049m    1.0075     3.0263m    3.1521m 
  622.00000p    2.3428m    1.0075     2.9410m    3.0644m 
  623.00000p    2.2806m    1.0074     2.8557m    2.9766m 
  624.00000p    2.2185m    1.0074     2.7704m    2.8889m 
  625.00000p    2.1564m    1.0073     2.6851m    2.8011m 
  626.00000p    2.0942m    1.0073     2.5998m    2.7134m 
  627.00000p    2.0321m    1.0073     2.5144m    2.6257m 
  628.00000p    1.9700m    1.0072     2.4291m    2.5379m 
  629.00000p    1.9079m    1.0072     2.3438m    2.4502m 
  630.00000p    1.8728m    1.0072     2.2996m    2.4041m 
  631.00000p    1.8488m    1.0071     2.2723m    2.3751m 
  632.00000p    1.8249m    1.0071     2.2450m    2.3461m 
  633.00000p    1.8009m    1.0071     2.2177m    2.3172m 
  634.00000p    1.7770m    1.0070     2.1904m    2.2882m 
  635.00000p    1.7531m    1.0070     2.1630m    2.2592m 
  636.00000p    1.7291m    1.0070     2.1357m    2.2302m 
  637.00000p    1.7052m    1.0069     2.1084m    2.2013m 
  638.00000p    1.6812m    1.0069     2.0811m    2.1723m 
  639.00000p    1.6573m    1.0069     2.0538m    2.1433m 
  640.00000p    1.6333m    1.0068     2.0265m    2.1143m 
  641.00000p    1.6094m    1.0068     1.9992m    2.0854m 
  642.00000p    1.5855m    1.0068     1.9719m    2.0564m 
  643.00000p    1.5615m    1.0068     1.9446m    2.0274m 
  644.00000p    1.5376m    1.0067     1.9173m    1.9985m 
  645.00000p    1.5136m    1.0067     1.8900m    1.9695m 
  646.00000p    1.4897m    1.0067     1.8627m    1.9405m 
  647.00000p    1.4657m    1.0066     1.8354m    1.9115m 
  648.00000p    1.4418m    1.0066     1.8081m    1.8826m 
  649.00000p    1.4179m    1.0066     1.7808m    1.8536m 
  650.00000p    1.3939m    1.0065     1.7534m    1.8246m 
  651.00000p    1.3700m    1.0065     1.7261m    1.7956m 
  652.00000p    1.3460m    1.0065     1.6988m    1.7667m 
  653.00000p    1.3221m    1.0065     1.6715m    1.7377m 
  654.00000p    1.2981m    1.0064     1.6442m    1.7087m 
  655.00000p    1.2742m    1.0064     1.6169m    1.6798m 
  656.00000p    1.2503m    1.0064     1.5896m    1.6508m 
  657.00000p    1.2263m    1.0063     1.5623m    1.6218m 
  658.00000p    1.2024m    1.0063     1.5350m    1.5928m 
  659.00000p    1.1784m    1.0063     1.5077m    1.5639m 
  660.00000p    1.1545m    1.0062     1.4804m    1.5349m 
  661.00000p    1.1305m    1.0062     1.4531m    1.5059m 
  662.00000p    1.1066m    1.0062     1.4258m    1.4770m 
  663.00000p    1.0827m    1.0062     1.3985m    1.4480m 
  664.00000p    1.0587m    1.0061     1.3712m    1.4190m 
  665.00000p    1.0348m    1.0061     1.3438m    1.3900m 
  666.00000p    1.0108m    1.0061     1.3165m    1.3611m 
  667.00000p  986.8876u    1.0060     1.2892m    1.3321m 
  668.00000p  962.9449u    1.0060     1.2619m    1.3031m 
  669.00000p  939.0021u    1.0060     1.2346m    1.2741m 
  670.00000p  915.0594u    1.0059     1.2073m    1.2452m 
  671.00000p  891.1167u    1.0059     1.1800m    1.2162m 
  672.00000p  867.1740u    1.0059     1.1527m    1.1872m 
  673.00000p  843.2313u    1.0058     1.1254m    1.1583m 
  674.00000p  819.2886u    1.0058     1.0981m    1.1293m 
  675.00000p  795.3458u    1.0058     1.0708m    1.1003m 
  676.00000p  771.4031u    1.0058     1.0435m    1.0713m 
  677.00000p  747.4604u    1.0057     1.0162m    1.0424m 
  678.00000p  723.5177u    1.0057   988.8568u    1.0134m 
  679.00000p  699.5750u    1.0057   961.5501u  984.4199u 
  680.00000p  675.6322u    1.0056   934.2433u  955.4475u 
  681.00000p  651.6895u    1.0056   906.9366u  926.4751u 
  682.00000p  627.7468u    1.0056   879.6299u  897.5027u 
  683.00000p  603.8041u    1.0055   852.3231u  868.5302u 
  684.00000p  579.8614u    1.0055   825.0164u  839.5578u 
  685.00000p  555.9187u    1.0055   797.7097u  810.5854u 
  686.00000p  531.9759u    1.0055   770.4029u  781.6130u 
  687.00000p  508.0332u    1.0054   743.0962u  752.6406u 
  688.00000p  484.0905u    1.0054   715.7895u  723.6682u 
  689.00000p  460.1478u    1.0054   688.4827u  694.6958u 
  690.00000p  436.2051u    1.0053   661.1760u  665.7234u 
  691.00000p  412.2624u    1.0053   633.8693u  636.7510u 
  692.00000p  389.0668u    1.0053   607.3010u  608.5869u 
  693.00000p  385.9329u    1.0052   600.5600u  602.1245u 
  694.00000p  382.7989u    1.0052   593.8190u  595.6621u 
  695.00000p  379.6649u    1.0052   587.0780u  589.1997u 
  696.00000p  376.5309u    1.0052   580.3370u  582.7373u 
  697.00000p  373.3969u    1.0052   573.5960u  576.2749u 
  698.00000p  370.2630u    1.0051   566.8550u  569.8125u 
  699.00000p  367.1290u    1.0051   560.1140u  563.3501u 
  700.00000p  363.9950u    1.0051   553.3730u  556.8877u 
  701.00000p  360.8610u    1.0051   546.6320u  550.4253u 
  702.00000p  357.7270u    1.0051   539.8909u  543.9629u 
  703.00000p  354.5931u    1.0050   533.1499u  537.5005u 
  704.00000p  351.4591u    1.0050   526.4089u  531.0381u 
  705.00000p  348.3251u    1.0050   519.6679u  524.5758u 
  706.00000p  345.1911u    1.0050   512.9269u  518.1134u 
  707.00000p  342.0571u    1.0049   506.1859u  511.6510u 
  708.00000p  338.9232u    1.0049   499.4449u  505.1886u 
  709.00000p  335.7892u    1.0049   492.7039u  498.7262u 
  710.00000p  332.6552u    1.0049   485.9629u  492.2638u 
  711.00000p  329.5212u    1.0049   479.2219u  485.8014u 
  712.00000p  326.3872u    1.0048   472.4809u  479.3390u 
  713.00000p  323.2533u    1.0048   465.7399u  472.8766u 
  714.00000p  320.1193u    1.0048   458.9989u  466.4142u 
  715.00000p  316.9853u    1.0048   452.2579u  459.9518u 
  716.00000p  313.8513u    1.0048   445.5169u  453.4894u 
  717.00000p  310.7173u    1.0047   438.7759u  447.0270u 
  718.00000p  307.5834u    1.0047   432.0349u  440.5647u 
  719.00000p  304.4494u    1.0047   425.2939u  434.1023u 
  720.00000p  301.3154u    1.0047   418.5528u  427.6399u 
  721.00000p  298.1814u    1.0046   411.8118u  421.1775u 
  722.00000p  295.0474u    1.0046   405.0708u  414.7151u 
  723.00000p  291.9135u    1.0046   398.3298u  408.2527u 
  724.00000p  288.7795u    1.0046   391.5888u  401.7903u 
  725.00000p  285.6455u    1.0046   384.8478u  395.3279u 
  726.00000p  282.5115u    1.0045   378.1068u  388.8655u 
  727.00000p  279.3775u    1.0045   371.3658u  382.4031u 
  728.00000p  276.2436u    1.0045   364.6248u  375.9407u 
  729.00000p  273.1096u    1.0045   357.8838u  369.4783u 
  730.00000p  269.9756u    1.0044   351.1428u  363.0160u 
  731.00000p  266.8416u    1.0044   344.4018u  356.5536u 
  732.00000p  263.7076u    1.0044   337.6608u  350.0912u 
  733.00000p  260.5737u    1.0044   330.9198u  343.6288u 
  734.00000p  257.4397u    1.0044   324.1788u  337.1664u 
  735.00000p  254.3057u    1.0043   317.4378u  330.7040u 
  736.00000p  251.1717u    1.0043   310.6968u  324.2416u 
  737.00000p  248.0377u    1.0043   303.9558u  317.7792u 
  738.00000p  244.9038u    1.0043   297.2148u  311.3168u 
  739.00000p  241.7698u    1.0043   290.4737u  304.8544u 
  740.00000p  238.6358u    1.0042   283.7327u  298.3920u 
  741.00000p  235.5018u    1.0042   276.9917u  291.9296u 
  742.00000p  232.3678u    1.0042   270.2507u  285.4672u 
  743.00000p  229.2339u    1.0042   263.5097u  279.0049u 
  744.00000p  226.0999u    1.0041   256.7687u  272.5425u 
  745.00000p  222.9659u    1.0041   250.0277u  266.0801u 
  746.00000p  219.8319u    1.0041   243.2867u  259.6177u 
  747.00000p  216.6979u    1.0041   236.5457u  253.1553u 
  748.00000p  213.5640u    1.0041   229.8047u  246.6929u 
  749.00000p  210.4300u    1.0040   223.0637u  240.2305u 
  750.00000p  207.2960u    1.0040   216.3227u  233.7681u 
  751.00000p  204.1620u    1.0040   209.5817u  227.3057u 
  752.00000p  201.0280u    1.0040   202.8407u  220.8433u 
  753.00000p  197.8941u    1.0040   196.0997u  214.3809u 
  754.00000p  194.7601u    1.0039   189.3587u  207.9185u 
  755.00000p  191.6261u    1.0039   182.6177u  201.4561u 
  756.00000p  188.4921u    1.0039   175.8767u  194.9938u 
  757.00000p  185.3581u    1.0039   169.1357u  188.5314u 
  758.00000p  182.2242u    1.0038   162.3946u  182.0690u 
  759.00000p  179.0902u    1.0038   155.6536u  175.6066u 
  760.00000p  175.9562u    1.0038   148.9126u  169.1442u 
  761.00000p  172.8222u    1.0038   142.1716u  162.6818u 
  762.00000p  169.6882u    1.0038   135.4306u  156.2194u 
  763.00000p  166.5543u    1.0037   128.6896u  149.7570u 
  764.00000p  163.4203u    1.0037   121.9486u  143.2946u 
  765.00000p  160.2863u    1.0037   115.2076u  136.8322u 
  766.00000p  157.1523u    1.0037   108.4666u  130.3698u 
  767.00000p  154.0183u    1.0036   101.7256u  123.9074u 
  768.00000p  150.8844u    1.0036    94.9846u  117.4451u 
  769.00000p  147.7504u    1.0036    88.2436u  110.9827u 
  770.00000p  145.4214u    1.0036    85.8339u  108.3577u 
  771.00000p  143.4160u    1.0036    85.1657u  107.2756u 
  772.00000p  141.4107u    1.0036    84.4976u  106.1936u 
  773.00000p  139.4054u    1.0035    83.8295u  105.1116u 
  774.00000p  137.4001u    1.0035    83.1613u  104.0296u 
  775.00000p  135.3947u    1.0035    82.4932u  102.9475u 
  776.00000p  133.3894u    1.0035    81.8251u  101.8655u 
  777.00000p  131.3841u    1.0035    81.1569u  100.7835u 
  778.00000p  129.3787u    1.0035    80.4888u   99.7015u 
  779.00000p  127.3734u    1.0035    79.8207u   98.6194u 
  780.00000p  125.3681u    1.0035    79.1525u   97.5374u 
  781.00000p  123.3628u    1.0034    78.4844u   96.4554u 
  782.00000p  121.3574u    1.0034    77.8162u   95.3733u 
  783.00000p  119.3521u    1.0034    77.1481u   94.2913u 
  784.00000p  117.3468u    1.0034    76.4800u   93.2093u 
  785.00000p  115.3415u    1.0034    75.8118u   92.1273u 
  786.00000p  113.3361u    1.0034    75.1437u   91.0452u 
  787.00000p  111.3308u    1.0034    74.4756u   89.9632u 
  788.00000p  109.3255u    1.0033    73.8074u   88.8812u 
  789.00000p  107.3201u    1.0033    73.1393u   87.7992u 
  790.00000p  105.3148u    1.0033    72.4712u   86.7171u 
  791.00000p  103.3095u    1.0033    71.8030u   85.6351u 
  792.00000p  101.3042u    1.0033    71.1349u   84.5531u 
  793.00000p   99.2988u    1.0033    70.4667u   83.4711u 
  794.00000p   97.2935u    1.0033    69.7986u   82.3890u 
  795.00000p   95.2882u    1.0032    69.1305u   81.3070u 
  796.00000p   93.2828u    1.0032    68.4623u   80.2250u 
  797.00000p   91.2775u    1.0032    67.7942u   79.1430u 
  798.00000p   89.2722u    1.0032    67.1261u   78.0609u 
  799.00000p   87.2669u    1.0032    66.4579u   76.9789u 
  800.00000p   85.2615u    1.0032    65.7898u   75.8969u 
  801.00000p   83.2562u    1.0032    65.1216u   74.8149u 
  802.00000p   81.2509u    1.0031    64.4535u   73.7328u 
  803.00000p   79.2456u    1.0031    63.7854u   72.6508u 
  804.00000p   77.2402u    1.0031    63.1172u   71.5688u 
  805.00000p   75.2349u    1.0031    62.4491u   70.4868u 
  806.00000p   73.2296u    1.0031    61.7810u   69.4047u 
  807.00000p   71.2242u    1.0031    61.1128u   68.3227u 
  808.00000p   69.2189u    1.0031    60.4447u   67.2407u 
  809.00000p   67.2136u    1.0030    59.7766u   66.1587u 
  810.00000p   65.2083u    1.0030    59.1084u   65.0766u 
  811.00000p   63.2029u    1.0030    58.4403u   63.9946u 
  812.00000p   61.1976u    1.0030    57.7721u   62.9126u 
  813.00000p   59.1923u    1.0030    57.1040u   61.8305u 
  814.00000p   57.1870u    1.0030    56.4359u   60.7485u 
  815.00000p   55.1816u    1.0030    55.7677u   59.6665u 
  816.00000p   53.1763u    1.0029    55.0996u   58.5845u 
  817.00000p   51.1710u    1.0029    54.4315u   57.5024u 
  818.00000p   49.1656u    1.0029    53.7633u   56.4204u 
  819.00000p   47.1603u    1.0029    53.0952u   55.3384u 
  820.00000p   45.1550u    1.0029    52.4271u   54.2564u 
  821.00000p   43.1497u    1.0029    51.7589u   53.1743u 
  822.00000p   41.1443u    1.0029    51.0908u   52.0923u 
  823.00000p   39.1390u    1.0029    50.4226u   51.0103u 
  824.00000p   37.1337u    1.0028    49.7545u   49.9283u 
  825.00000p   35.1283u    1.0028    49.0864u   48.8462u 
  826.00000p   33.1230u    1.0028    48.4182u   47.7642u 
  827.00000p   31.1177u    1.0028    47.7501u   46.6822u 
  828.00000p   29.1124u    1.0028    47.0820u   45.6002u 
  829.00000p   27.1070u    1.0028    46.4138u   44.5181u 
  830.00000p   25.1017u    1.0028    45.7457u   43.4361u 
  831.00000p   23.0964u    1.0027    45.0776u   42.3541u 
  832.00000p   21.0911u    1.0027    44.4094u   41.2721u 
  833.00000p   19.0857u    1.0027    43.7413u   40.1900u 
  834.00000p   17.0804u    1.0027    43.0731u   39.1080u 
  835.00000p   15.0751u    1.0027    42.4050u   38.0260u 
  836.00000p   13.0697u    1.0027    41.7369u   36.9440u 
  837.00000p   11.0644u    1.0027    41.0687u   35.8619u 
  838.00000p    9.0591u    1.0026    40.4006u   34.7799u 
  839.00000p    7.0538u    1.0026    39.7325u   33.6979u 
  840.00000p    5.0484u    1.0026    39.0643u   32.6159u 
  841.00000p    3.0431u    1.0026    38.3962u   31.5338u 
  842.00000p    1.0378u    1.0026    37.7281u   30.4518u 
  843.00000p -967.5520n    1.0026    37.0599u   29.3698u 
  844.00000p   -2.9729u    1.0026    36.3918u   28.2877u 
  845.00000p   -4.9782u    1.0025    35.7236u   27.2057u 
  846.00000p   -6.9835u    1.0025    35.0555u   26.1237u 
  847.00000p   -8.9889u    1.0025    34.3874u   25.0417u 
  848.00000p  -10.9942u    1.0025    33.7192u   23.9596u 
  849.00000p  -12.9995u    1.0025    33.0511u   22.8776u 
  850.00000p  -15.0048u    1.0025    32.3830u   21.7956u 
  851.00000p  -17.0102u    1.0025    31.7148u   20.7136u 
  852.00000p  -19.0155u    1.0024    31.0467u   19.6315u 
  853.00000p  -21.0208u    1.0024    30.3785u   18.5495u 
  854.00000p  -23.0262u    1.0024    29.7104u   17.4675u 
  855.00000p  -25.0315u    1.0024    29.0423u   16.3855u 
  856.00000p  -27.0368u    1.0024    28.3741u   15.3034u 
  857.00000p  -29.0421u    1.0024    27.7060u   14.2214u 
  858.00000p  -31.0475u    1.0024    27.0379u   13.1394u 
  859.00000p  -33.0528u    1.0023    26.3697u   12.0574u 
  860.00000p  -35.0581u    1.0023    25.7016u   10.9753u 
  861.00000p  -37.0635u    1.0023    25.0335u    9.8933u 
  862.00000p  -39.0688u    1.0023    24.3653u    8.8113u 
  863.00000p  -41.0741u    1.0023    23.6972u    7.7293u 
  864.00000p  -43.0794u    1.0023    23.0290u    6.6472u 
  865.00000p  -45.0848u    1.0023    22.3609u    5.5652u 
  866.00000p  -47.0901u    1.0022    21.6928u    4.4832u 
  867.00000p  -49.0954u    1.0022    21.0246u    3.4012u 
  868.00000p  -51.1007u    1.0022    20.3565u    2.3191u 
  869.00000p  -53.1061u    1.0022    19.6884u    1.2371u 
  870.00000p  -55.1114u    1.0022    19.0202u  155.0753n 
  871.00000p  -57.1167u    1.0022    18.3521u -926.9506n 
  872.00000p  -59.1221u    1.0022    17.6840u   -2.0090u 
  873.00000p  -61.1274u    1.0022    17.0158u   -3.0910u 
  874.00000p  -59.9996u    1.0021    16.8323u   -2.9331u 
  875.00000p  -58.7578u    1.0021    16.6663u   -2.7301u 
  876.00000p  -57.5160u    1.0021    16.5004u   -2.5272u 
  877.00000p  -56.2742u    1.0021    16.3345u   -2.3242u 
  878.00000p  -55.0324u    1.0021    16.1686u   -2.1212u 
  879.00000p  -53.7906u    1.0021    16.0026u   -1.9182u 
  880.00000p  -52.5488u    1.0021    15.8367u   -1.7152u 
  881.00000p  -51.3070u    1.0021    15.6708u   -1.5123u 
  882.00000p  -50.0652u    1.0021    15.5049u   -1.3093u 
  883.00000p  -48.8234u    1.0021    15.3389u   -1.1063u 
  884.00000p  -47.5816u    1.0021    15.1730u -903.3069n 
  885.00000p  -46.3398u    1.0021    15.0071u -700.3249n 
  886.00000p  -45.0980u    1.0020    14.8412u -497.3429n 
  887.00000p  -43.8562u    1.0020    14.6753u -294.3608n 
  888.00000p  -42.6144u    1.0020    14.5093u  -91.3788n 
  889.00000p  -41.3726u    1.0020    14.3434u  111.6032n 
  890.00000p  -40.1308u    1.0020    14.1775u  314.5852n 
  891.00000p  -38.8890u    1.0020    14.0116u  517.5672n 
  892.00000p  -37.6472u    1.0020    13.8456u  720.5492n 
  893.00000p  -36.4054u    1.0020    13.6797u  923.5312n 
  894.00000p  -35.1636u    1.0020    13.5138u    1.1265u 
  895.00000p  -33.9218u    1.0020    13.3479u    1.3295u 
  896.00000p  -32.6800u    1.0020    13.1819u    1.5325u 
  897.00000p  -31.4382u    1.0020    13.0160u    1.7355u 
  898.00000p  -30.1964u    1.0019    12.8501u    1.9384u 
  899.00000p  -28.9546u    1.0019    12.6842u    2.1414u 
  900.00000p  -27.7128u    1.0019    12.5182u    2.3444u 
  901.00000p  -26.4710u    1.0019    12.3523u    2.5474u 
  902.00000p  -25.2292u    1.0019    12.1864u    2.7504u 
  903.00000p  -23.9874u    1.0019    12.0205u    2.9534u 
  904.00000p  -22.7456u    1.0019    11.8545u    3.1563u 
  905.00000p  -21.5038u    1.0019    11.6886u    3.3593u 
  906.00000p  -20.2620u    1.0019    11.5227u    3.5623u 
  907.00000p  -19.0202u    1.0019    11.3568u    3.7653u 
  908.00000p  -17.7784u    1.0019    11.1908u    3.9683u 
  909.00000p  -16.5366u    1.0019    11.0249u    4.1712u 
  910.00000p  -15.2948u    1.0018    10.8590u    4.3742u 
  911.00000p  -14.0530u    1.0018    10.6931u    4.5772u 
  912.00000p  -12.8112u    1.0018    10.5271u    4.7802u 
  913.00000p  -11.5694u    1.0018    10.3612u    4.9832u 
  914.00000p  -10.3276u    1.0018    10.1953u    5.1862u 
  915.00000p   -9.0858u    1.0018    10.0294u    5.3891u 
  916.00000p   -7.8440u    1.0018     9.8635u    5.5921u 
  917.00000p   -6.6022u    1.0018     9.6975u    5.7951u 
  918.00000p   -5.3604u    1.0018     9.5316u    5.9981u 
  919.00000p   -4.1186u    1.0018     9.3657u    6.2011u 
  920.00000p   -2.8768u    1.0018     9.1998u    6.4040u 
  921.00000p   -1.6350u    1.0018     9.0338u    6.6070u 
  922.00000p -393.2375n    1.0018     8.8679u    6.8100u 
  923.00000p  848.5610n    1.0017     8.7020u    7.0130u 
  924.00000p    2.0904u    1.0017     8.5361u    7.2160u 
  925.00000p    3.3322u    1.0017     8.3701u    7.4190u 
  926.00000p    4.5740u    1.0017     8.2042u    7.6219u 
  927.00000p    5.8158u    1.0017     8.0383u    7.8249u 
  928.00000p    7.0576u    1.0017     7.8724u    8.0279u 
  929.00000p    8.2994u    1.0017     7.7064u    8.2309u 
  930.00000p    9.5412u    1.0017     7.5405u    8.4339u 
  931.00000p   10.7829u    1.0017     7.3746u    8.6368u 
  932.00000p   12.0247u    1.0017     7.2087u    8.8398u 
  933.00000p   13.2665u    1.0017     7.0427u    9.0428u 
  934.00000p   14.5083u    1.0017     6.8768u    9.2458u 
  935.00000p   15.7501u    1.0016     6.7109u    9.4488u 
  936.00000p   16.9919u    1.0016     6.5450u    9.6518u 
  937.00000p   18.2337u    1.0016     6.3790u    9.8547u 
  938.00000p   19.4755u    1.0016     6.2131u   10.0577u 
  939.00000p   20.7173u    1.0016     6.0472u   10.2607u 
  940.00000p   21.9591u    1.0016     5.8813u   10.4637u 
  941.00000p   23.2009u    1.0016     5.7153u   10.6667u 
  942.00000p   24.4427u    1.0016     5.5494u   10.8696u 
  943.00000p   25.6845u    1.0016     5.3835u   11.0726u 
  944.00000p   26.9263u    1.0016     5.2176u   11.2756u 
  945.00000p   28.1681u    1.0016     5.0516u   11.4786u 
  946.00000p   29.4099u    1.0016     4.8857u   11.6816u 
  947.00000p   30.6517u    1.0015     4.7198u   11.8846u 
  948.00000p   31.8935u    1.0015     4.5539u   12.0875u 
  949.00000p   33.1353u    1.0015     4.3880u   12.2905u 
  950.00000p   34.3771u    1.0015     4.2220u   12.4935u 
  951.00000p   35.6189u    1.0015     4.0561u   12.6965u 
  952.00000p   36.8607u    1.0015     3.8902u   12.8995u 
  953.00000p   38.1025u    1.0015     3.7243u   13.1025u 
  954.00000p   39.3443u    1.0015     3.5583u   13.3054u 
  955.00000p   40.5861u    1.0015     3.3924u   13.5084u 
  956.00000p   41.8279u    1.0015     3.2265u   13.7114u 
  957.00000p   43.0697u    1.0015     3.0606u   13.9144u 
  958.00000p   44.3115u    1.0015     2.8946u   14.1174u 
  959.00000p   45.5533u    1.0014     2.7287u   14.3203u 
  960.00000p   46.7951u    1.0014     2.5628u   14.5233u 
  961.00000p   48.0369u    1.0014     2.3969u   14.7263u 
  962.00000p   49.2787u    1.0014     2.2309u   14.9293u 
  963.00000p   50.5205u    1.0014     2.0650u   15.1323u 
  964.00000p   51.7623u    1.0014     1.8991u   15.3353u 
  965.00000p   53.0041u    1.0014     1.7332u   15.5382u 
  966.00000p   54.2459u    1.0014     1.5672u   15.7412u 
  967.00000p   55.4877u    1.0014     1.4013u   15.9442u 
  968.00000p   56.7295u    1.0014     1.2354u   16.1472u 
  969.00000p   57.9713u    1.0014     1.0695u   16.3502u 
  970.00000p   59.2131u    1.0014   903.5441n   16.5531u 
  971.00000p   60.4549u    1.0014   737.6199n   16.7561u 
  972.00000p   61.6967u    1.0013   571.6957n   16.9591u 
  973.00000p   62.9385u    1.0013   405.7715n   17.1621u 
  974.00000p   64.1803u    1.0013   239.8473n   17.3651u 
  975.00000p   65.4221u    1.0013    73.9231n   17.5681u 
  976.00000p   66.6639u    1.0013   -92.0011n   17.7710u 
  977.00000p   67.9057u    1.0013  -257.9253n   17.9740u 
  978.00000p   69.1475u    1.0013  -423.8495n   18.1770u 
  979.00000p   70.3893u    1.0013  -589.7737n   18.3800u 
  980.00000p   71.6311u    1.0013  -755.6978n   18.5830u 
  981.00000p   65.9061u    1.0013     5.7840n   17.5218u 
  982.00000p   59.4337u    1.0013   866.7757n   16.3250u 
  983.00000p   52.9612u    1.0013     1.7278u   15.1282u 
  984.00000p   46.4888u    1.0012     2.5888u   13.9313u 
  985.00000p   40.0163u    1.0012     3.4498u   12.7345u 
  986.00000p   33.5438u    1.0012     4.3107u   11.5377u 
  987.00000p   27.0714u    1.0012     5.1717u   10.3409u 
  988.00000p   20.5989u    1.0012     6.0327u    9.1441u 
  989.00000p   14.1265u    1.0012     6.8937u    7.9473u 
  990.00000p    7.6540u    1.0012     7.7547u    6.7505u 
  991.00000p    1.1815u    1.0012     8.6157u    5.5536u 
  992.00000p   -5.2909u    1.0012     9.4767u    4.3568u 
  993.00000p  -11.7634u    1.0012    10.3377u    3.1600u 
  994.00000p  -18.2358u    1.0012    11.1987u    1.9632u 
  995.00000p  -24.7083u    1.0012    12.0597u  766.3715n 
  996.00000p  -31.1808u    1.0012    12.9207u -430.4443n 
  997.00000p  -37.6532u    1.0012    13.7817u   -1.6273u 
  998.00000p -540.0621u    1.0005  -592.8887u -339.8392u 
  999.00000p   -1.1101m  999.7912m   -1.2824m -724.0077u 
    1.00000n   -1.6801m  999.0629m   -1.9719m   -1.1082m 
    1.00100n   -2.2502m  998.3347m   -2.6614m   -1.4923m 
    1.00200n   -2.8202m  997.6064m   -3.3510m   -1.8765m 
    1.00300n   -3.3902m  996.8781m   -4.0405m   -2.2607m 
    1.00400n   -3.9617m  996.1078m   -4.6943m   -2.6815m 
    1.00500n   -4.5339m  995.3127m   -5.3273m   -3.1240m 
    1.00600n   -5.0273m  994.4615m   -5.8177m   -3.5805m 
    1.00700n   -5.5061m  993.6000m   -6.2818m   -4.0397m 
    1.00800n   -5.9848m  992.7385m   -6.7458m   -4.4989m 
    1.00900n   -6.4636m  991.8769m   -7.2098m   -4.9580m 
    1.01000n   -6.9423m  991.0154m   -7.6738m   -5.4172m 
    1.01100n   -6.8491m  990.0202m   -7.3790m   -5.4212m 
    1.01200n   -2.8070m  988.1028m   -1.8444m   -2.2827m 
    1.01300n    1.2351m  986.1853m    3.6901m  855.7658u 
    1.01400n    5.2772m  984.2679m    9.2247m    3.9943m 
    1.01500n    9.3193m  982.3504m   14.7592m    7.1328m 
    1.01600n   13.3614m  980.4330m   20.2938m   10.2713m 
    1.01700n   17.4035m  978.5155m   25.8283m   13.4098m 
    1.01800n   21.4456m  976.5981m   31.3629m   16.5483m 
    1.01900n   25.4877m  974.6806m   36.8974m   19.6868m 
    1.02000n   29.5298m  972.7632m   42.4320m   22.8253m 
    1.02100n   33.5719m  970.8457m   47.9665m   25.9638m 
    1.02200n   37.6139m  968.9283m   53.5011m   29.1023m 
    1.02300n   41.6560m  967.0108m   59.0356m   32.2408m 
    1.02400n   45.6981m  965.0934m   64.5702m   35.3793m 
    1.02500n   49.7402m  963.1759m   70.1047m   38.5177m 
    1.02600n   53.7823m  961.2585m   75.6393m   41.6562m 
    1.02700n   57.8244m  959.3410m   81.1738m   44.7947m 
    1.02800n   61.8665m  957.4236m   86.7084m   47.9332m 
    1.02900n   65.9086m  955.5061m   92.2429m   51.0717m 
    1.03000n   76.9240m  952.3086m  106.6724m   60.4460m 
    1.03100n   89.3444m  948.8532m  122.8940m   71.0766m 
    1.03200n  101.7647m  945.3978m  139.1157m   81.7073m 
    1.03300n  114.1851m  941.9424m  155.3374m   92.3379m 
    1.03400n  126.6054m  938.4870m  171.5590m  102.9686m 
    1.03500n  139.0258m  935.0316m  187.7807m  113.5992m 
    1.03600n  151.4462m  931.5762m  204.0023m  124.2299m 
    1.03700n  165.8391m  927.9418m  223.5779m  138.1895m 
    1.03800n  182.6148m  924.0912m  247.2049m  156.1703m 
    1.03900n  199.3905m  920.2406m  270.8319m  174.1510m 
    1.04000n  216.1663m  916.3900m  294.4588m  192.1318m 
    1.04100n  232.9420m  912.5394m  318.0858m  210.1126m 
    1.04200n  250.3229m  908.6339m  342.7417m  229.1147m 
    1.04300n  270.7342m  904.4534m  372.5503m  253.2310m 
    1.04400n  291.1456m  900.2729m  402.3589m  277.3474m 
    1.04500n  311.5570m  896.0924m  432.1675m  301.4638m 
    1.04600n  331.9684m  891.9119m  461.9761m  325.5801m 
    1.04700n  352.3798m  887.7314m  491.7847m  349.6965m 
    1.04800n  372.0253m  886.0489m  516.7525m  375.9965m 
    1.04900n  391.5664m  884.7071m  541.0601m  402.5943m 
    1.05000n  411.1075m  883.3652m  565.3678m  429.1921m 
    1.05100n  430.6485m  882.0234m  589.6755m  455.7900m 
    1.05200n  450.1896m  880.6816m  613.9831m  482.3878m 
    1.05300n  469.7307m  879.3398m  638.2908m  508.9856m 
    1.05400n  490.4384m  878.2486m  660.6493m  535.5923m 
    1.05500n  512.2216m  877.5710m  681.0948m  561.2117m 
    1.05600n  535.9324m  877.7279m  698.0517m  584.5519m 
    1.05700n  559.6432m  877.8849m  715.0085m  607.8921m 
    1.05800n  583.3540m  878.0419m  731.9653m  631.2322m 
    1.05900n  607.0648m  878.1988m  748.9222m  654.5724m 
    1.06000n  629.9703m  879.0198m  763.8838m  675.3038m 
    1.06100n  651.7401m  880.7773m  776.0313m  692.3558m 
    1.06200n  673.5098m  882.5349m  788.1787m  709.4077m 
    1.06300n  695.2796m  884.2924m  800.3262m  726.4597m 
    1.06400n  717.0494m  886.0499m  812.4737m  743.5117m 
    1.06500n  738.8191m  887.8075m  824.6212m  760.5636m 
    1.06600n  757.1582m  890.0261m  835.0483m  775.0432m 
    1.06700n  771.7532m  892.7478m  843.5979m  786.7153m 
    1.06800n  786.3483m  895.4695m  852.1476m  798.3875m 
    1.06900n  800.9433m  898.1912m  860.6973m  810.0597m 
    1.07000n  815.5384m  900.9130m  869.2469m  821.7318m 
    1.07100n  830.1334m  903.6347m  877.7966m  833.4040m 
    1.07200n  843.1202m  906.4172m  885.5817m  844.0619m 
    1.07300n  851.4231m  909.3765m  891.1405m  851.7660m 
    1.07400n  859.7259m  912.3359m  896.6992m  859.4701m 
    1.07500n  868.0288m  915.2953m  902.2579m  867.1742m 
    1.07600n  876.3316m  918.2547m  907.8166m  874.8782m 
    1.07700n  884.6345m  921.2140m  913.3753m  882.5823m 
    1.07800n  892.9374m  924.1734m  918.9340m  890.2864m 
    1.07900n  901.2402m  927.1328m  924.4928m  897.9905m 
    1.08000n  907.1299m  929.8180m  928.6252m  903.6979m 
    1.08100n  911.3495m  932.3135m  931.7706m  908.0234m 
    1.08200n  915.5690m  934.8091m  934.9160m  912.3490m 
    1.08300n  919.7886m  937.3046m  938.0614m  916.6745m 
    1.08400n  924.0081m  939.8001m  941.2067m  921.0001m 
    1.08500n  928.2277m  942.2956m  944.3521m  925.3256m 
    1.08600n  932.4473m  944.7911m  947.4975m  929.6512m 
    1.08700n  936.6668m  947.2866m  950.6429m  933.9767m 
    1.08800n  940.8864m  949.7822m  953.7883m  938.3023m 
    1.08900n  945.1060m  952.2777m  956.9336m  942.6278m 
    1.09000n  949.3255m  954.7732m  960.0790m  946.9534m 
    1.09100n  953.1096m  957.1081m  962.9159m  950.8443m 
    1.09200n  955.1005m  958.7814m  964.4826m  952.9454m 
    1.09300n  957.0914m  960.4547m  966.0493m  955.0465m 
    1.09400n  959.0823m  962.1280m  967.6160m  957.1476m 
    1.09500n  961.0731m  963.8014m  969.1827m  959.2487m 
    1.09600n  963.0640m  965.4747m  970.7494m  961.3498m 
    1.09700n  965.0549m  967.1480m  972.3161m  963.4509m 
    1.09800n  967.0458m  968.8213m  973.8828m  965.5520m 
    1.09900n  969.0367m  970.4947m  975.4495m  967.6531m 
    1.10000n  971.0275m  972.1680m  977.0162m  969.7542m 
    1.10100n  973.0184m  973.8413m  978.5828m  971.8553m 
    1.10200n  975.0093m  975.5147m  980.1495m  973.9564m 
    1.10300n  975.9544m  976.4239m  980.9038m  974.9519m 
    1.10400n  976.8972m  977.3315m  981.6563m  975.9450m 
    1.10500n  977.8401m  978.2390m  982.4088m  976.9380m 
    1.10600n  978.7829m  979.1466m  983.1613m  977.9311m 
    1.10700n  979.7257m  980.0542m  983.9138m  978.9241m 
    1.10800n  980.6685m  980.9617m  984.6663m  979.9172m 
    1.10900n  981.6114m  981.8693m  985.4188m  980.9102m 
    1.11000n  982.5542m  982.7769m  986.1713m  981.9033m 
    1.11100n  983.4970m  983.6844m  986.9238m  982.8964m 
    1.11200n  984.4398m  984.5920m  987.6763m  983.8894m 
    1.11300n  985.3827m  985.4995m  988.4288m  984.8825m 
    1.11400n  986.3255m  986.4071m  989.1813m  985.8755m 
    1.11500n  987.2683m  987.3147m  989.9338m  986.8686m 
    1.11600n  988.2111m  988.2222m  990.6863m  987.8617m 
    1.11700n  989.1540m  989.1298m  991.4388m  988.8547m 
    1.11800n  989.6450m  989.6221m  991.8339m  989.3728m 
    1.11900n  990.0104m  989.9988m  992.1297m  989.7589m 
    1.12000n  990.3757m  990.3756m  992.4254m  990.1449m 
    1.12100n  990.7411m  990.7523m  992.7211m  990.5309m 
    1.12200n  991.1064m  991.1290m  993.0168m  990.9169m 
    1.12300n  991.4718m  991.5058m  993.3125m  991.3029m 
    1.12400n  991.8371m  991.8825m  993.6083m  991.6889m 
    1.12500n  992.2025m  992.2593m  993.9040m  992.0749m 
    1.12600n  992.5678m  992.6360m  994.1997m  992.4609m 
    1.12700n  992.9332m  993.0127m  994.4954m  992.8469m 
    1.12800n  993.2985m  993.3895m  994.7911m  993.2329m 
    1.12900n  993.6639m  993.7662m  995.0869m  993.6189m 
    1.13000n  994.0292m  994.1430m  995.3826m  994.0049m 
    1.13100n  994.3946m  994.5197m  995.6783m  994.3909m 
    1.13200n  994.7599m  994.8964m  995.9740m  994.7769m 
    1.13300n  995.1253m  995.2732m  996.2697m  995.1629m 
    1.13400n  995.4906m  995.6499m  996.5655m  995.5489m 
    1.13500n  995.8560m  996.0267m  996.8612m  995.9349m 
    1.13600n  996.2213m  996.4034m  997.1569m  996.3209m 
    1.13700n  996.3397m  996.5243m  997.2500m  996.4426m 
    1.13800n  996.4471m  996.6337m  997.3340m  996.5523m 
    1.13900n  996.5545m  996.7432m  997.4181m  996.6621m 
    1.14000n  996.6618m  996.8526m  997.5021m  996.7719m 
    1.14100n  996.7692m  996.9620m  997.5861m  996.8817m 
    1.14200n  996.8765m  997.0715m  997.6702m  996.9915m 
    1.14300n  996.9839m  997.1809m  997.7542m  997.1013m 
    1.14400n  997.0913m  997.2903m  997.8382m  997.2111m 
    1.14500n  997.1986m  997.3998m  997.9223m  997.3209m 
    1.14600n  997.3060m  997.5092m  998.0063m  997.4307m 
    1.14700n  997.4133m  997.6186m  998.0903m  997.5405m 
    1.14800n  997.5207m  997.7281m  998.1743m  997.6503m 
    1.14900n  997.6281m  997.8375m  998.2584m  997.7601m 
    1.15000n  997.7354m  997.9470m  998.3424m  997.8699m 
    1.15100n  997.8428m  998.0564m  998.4264m  997.9797m 
    1.15200n  997.9501m  998.1658m  998.5105m  998.0895m 
    1.15300n  998.0575m  998.2753m  998.5945m  998.1993m 
    1.15400n  998.1649m  998.3847m  998.6785m  998.3091m 
    1.15500n  998.2722m  998.4941m  998.7626m  998.4189m 
    1.15600n  998.3796m  998.6036m  998.8466m  998.5287m 
    1.15700n  998.4869m  998.7130m  998.9306m  998.6385m 
    1.15800n  998.5943m  998.8224m  999.0147m  998.7483m 
    1.15900n  998.7017m  998.9319m  999.0987m  998.8581m 
    1.16000n  998.8090m  999.0413m  999.1827m  998.9679m 
    1.16100n  998.9164m  999.1508m  999.2668m  999.0777m 
    1.16200n  998.9690m  999.2035m  999.3083m  999.1314m 
    1.16300n  998.9918m  999.2254m  999.3266m  999.1546m 
    1.16400n  999.0146m  999.2473m  999.3450m  999.1778m 
    1.16500n  999.0375m  999.2691m  999.3633m  999.2011m 
    1.16600n  999.0603m  999.2910m  999.3817m  999.2243m 
    1.16700n  999.0831m  999.3129m  999.4001m  999.2475m 
    1.16800n  999.1059m  999.3348m  999.4184m  999.2707m 
    1.16900n  999.1288m  999.3567m  999.4368m  999.2939m 
    1.17000n  999.1516m  999.3786m  999.4551m  999.3172m 
    1.17100n  999.1744m  999.4004m  999.4735m  999.3404m 
    1.17200n  999.1973m  999.4223m  999.4918m  999.3636m 
    1.17300n  999.2201m  999.4442m  999.5102m  999.3868m 
    1.17400n  999.2429m  999.4661m  999.5285m  999.4101m 
    1.17500n  999.2657m  999.4880m  999.5469m  999.4333m 
    1.17600n  999.2886m  999.5099m  999.5652m  999.4565m 
    1.17700n  999.3114m  999.5317m  999.5836m  999.4797m 
    1.17800n  999.3342m  999.5536m  999.6020m  999.5029m 
    1.17900n  999.3570m  999.5755m  999.6203m  999.5262m 
    1.18000n  999.3799m  999.5974m  999.6387m  999.5494m 
    1.18100n  999.4027m  999.6193m  999.6570m  999.5726m 
    1.18200n  999.4255m  999.6411m  999.6754m  999.5958m 
    1.18300n  999.4483m  999.6630m  999.6937m  999.6190m 
    1.18400n  999.4712m  999.6849m  999.7121m  999.6423m 
    1.18500n  999.4940m  999.7068m  999.7304m  999.6655m 
    1.18600n  999.5168m  999.7287m  999.7488m  999.6887m 
    1.18700n  999.5396m  999.7506m  999.7672m  999.7119m 
    1.18800n  999.5625m  999.7724m  999.7855m  999.7351m 
    1.18900n  999.5853m  999.7943m  999.8039m  999.7584m 
    1.19000n  999.6081m  999.8162m  999.8222m  999.7816m 
    1.19100n  999.6310m  999.8381m  999.8406m  999.8048m 
    1.19200n  999.6538m  999.8600m  999.8589m  999.8280m 
    1.19300n  999.6766m  999.8819m  999.8773m  999.8512m 
    1.19400n  999.6946m  999.8986m  999.8912m  999.8690m 
    1.19500n  999.6984m  999.9005m  999.8921m  999.8708m 
    1.19600n  999.7023m  999.9023m  999.8931m  999.8726m 
    1.19700n  999.7061m  999.9042m  999.8940m  999.8744m 
    1.19800n  999.7100m  999.9060m  999.8950m  999.8762m 
    1.19900n  999.7138m  999.9079m  999.8959m  999.8780m 
    1.20000n  999.7177m  999.9097m  999.8968m  999.8799m 
    1.20100n  999.7216m  999.9116m  999.8978m  999.8817m 
    1.20200n  999.7254m  999.9134m  999.8987m  999.8835m 
    1.20300n  999.7293m  999.9153m  999.8997m  999.8853m 
    1.20400n  999.7331m  999.9171m  999.9006m  999.8871m 
    1.20500n  999.7370m  999.9190m  999.9016m  999.8889m 
    1.20600n  999.7408m  999.9209m  999.9025m  999.8907m 
    1.20700n  999.7447m  999.9227m  999.9035m  999.8925m 
    1.20800n  999.7485m  999.9246m  999.9044m  999.8944m 
    1.20900n  999.7524m  999.9264m  999.9053m  999.8962m 
    1.21000n  999.7563m  999.9283m  999.9063m  999.8980m 
    1.21100n  999.7601m  999.9301m  999.9072m  999.8998m 
    1.21200n  999.7640m  999.9320m  999.9082m  999.9016m 
    1.21300n  999.7678m  999.9338m  999.9091m  999.9034m 
    1.21400n  999.7717m  999.9357m  999.9101m  999.9052m 
    1.21500n  999.7755m  999.9375m  999.9110m  999.9071m 
    1.21600n  999.7794m  999.9394m  999.9120m  999.9089m 
    1.21700n  999.7832m  999.9412m  999.9129m  999.9107m 
    1.21800n    1.0001     1.0002     1.0003     1.0002  
    1.21900n    1.0011     1.0012     1.0019     1.0010  
    1.22000n    1.0021     1.0022     1.0035     1.0019  
    1.22100n    1.0032     1.0033     1.0050     1.0028  
    1.22200n    1.0042     1.0043     1.0066     1.0036  
    1.22300n    1.0053     1.0053     1.0081     1.0045  
    1.22400n    1.0063     1.0063     1.0097     1.0054  
    1.22500n    1.0074     1.0073     1.0109     1.0064  
    1.22600n    1.0084     1.0083     1.0120     1.0073  
    1.22700n    1.0095     1.0093     1.0130     1.0084  
    1.22800n    1.0105     1.0103     1.0140     1.0094  
    1.22900n    1.0115     1.0113     1.0150     1.0104  
    1.23000n    1.0126     1.0123     1.0159     1.0115  
    1.23100n    1.0136     1.0133     1.0169     1.0125  
    1.23200n    1.0147     1.0143     1.0179     1.0135  
    1.23300n    1.0146     1.0153     1.0183     1.0140  
    1.23400n    1.0135     1.0161     1.0182     1.0139  
    1.23500n    1.0123     1.0170     1.0181     1.0138  
    1.23600n    1.0111     1.0178     1.0180     1.0137  
    1.23700n    1.0099     1.0187     1.0179     1.0136  
    1.23800n    1.0088     1.0195     1.0178     1.0135  
    1.23900n    1.0076     1.0204     1.0177     1.0134  
    1.24000n    1.0064     1.0212     1.0176     1.0133  
    1.24100n    1.0052     1.0221     1.0175     1.0132  
    1.24200n    1.0040     1.0229     1.0174     1.0131  
    1.24300n    1.0029     1.0238     1.0173     1.0130  
    1.24400n    1.0017     1.0246     1.0172     1.0129  
    1.24500n    1.0005     1.0255     1.0171     1.0128  
    1.24600n  999.3183m    1.0263     1.0170     1.0127  
    1.24700n  998.1393m    1.0272     1.0169     1.0126  
    1.24800n  996.9602m    1.0280     1.0168     1.0126  
    1.24900n  995.7812m    1.0289     1.0167     1.0125  
    1.25000n  994.6021m    1.0297     1.0166     1.0124  
    1.25100n  993.4231m    1.0306     1.0165     1.0123  
    1.25200n  992.2440m    1.0314     1.0164     1.0122  
    1.25300n  991.0650m    1.0322     1.0163     1.0121  
    1.25400n  985.6181m    1.0330     1.0147     1.0107  
    1.25500n  977.6651m    1.0338     1.0122     1.0087  
    1.25600n  969.7120m    1.0345     1.0097     1.0066  
    1.25700n  961.7590m    1.0353     1.0073     1.0045  
    1.25800n  953.8060m    1.0360     1.0048     1.0025  
    1.25900n  945.8529m    1.0368     1.0023     1.0004  
    1.26000n  937.8999m    1.0376   999.8741m  998.3374m 
    1.26100n  927.5069m    1.0381   995.5903m  994.7616m 
    1.26200n  916.0611m    1.0386   990.5226m  990.5341m 
    1.26300n  904.6153m    1.0391   985.4549m  986.3065m 
    1.26400n  893.1696m    1.0396   980.3872m  982.0789m 
    1.26500n  881.7238m    1.0401   975.3196m  977.8513m 
    1.26600n  870.2780m    1.0406   970.2519m  973.6237m 
    1.26700n  858.8323m    1.0411   965.1842m  969.3961m 
    1.26800n  847.9052m    1.0413   959.4529m  964.5572m 
    1.26900n  838.3117m    1.0410   952.0154m  958.1461m 
    1.27000n  828.7183m    1.0407   944.5779m  951.7350m 
    1.27100n  819.1249m    1.0404   937.1403m  945.3239m 
    1.27200n  809.5315m    1.0401   929.7028m  938.9129m 
    1.27300n  799.9802m    1.0398   922.3855m  932.4913m 
    1.27400n  790.5306m    1.0394   915.2055m  926.0163m 
    1.27500n  781.5277m    1.0392   908.2103m  919.2309m 
    1.27600n  772.5248m    1.0390   901.2152m  912.4454m 
    1.27700n  763.5219m    1.0387   894.2201m  905.6600m 
    1.27800n  754.5190m    1.0385   887.2250m  898.8745m 
    1.27900n  745.8182m    1.0383   880.3312m  892.0613m 
    1.28000n  737.2758m    1.0382   873.4906m  885.2336m 
    1.28100n  728.7333m    1.0381   866.6500m  878.4059m 
    1.28200n  720.1909m    1.0379   859.8093m  871.5782m 
    1.28300n  711.6485m    1.0378   852.9687m  864.7505m 
    1.28400n  703.0956m    1.0376   846.1548m  857.9399m 
    1.28500n  694.4818m    1.0375   839.4963m  851.2288m 
    1.28600n  685.8679m    1.0373   832.8379m  844.5176m 
    1.28700n  677.2541m    1.0372   826.1794m  837.8064m 
    1.28800n  668.6402m    1.0370   819.5209m  831.0953m 
    1.28900n  660.0264m    1.0369   812.8625m  824.3841m 
    1.29000n  651.4126m    1.0367   806.2040m  817.6729m 
    1.29100n  642.5656m    1.0366   799.7008m  811.1014m 
    1.29200n  633.6182m    1.0364   793.2645m  804.5901m 
    1.29300n  624.6708m    1.0362   786.8282m  798.0788m 
    1.29400n  615.7234m    1.0361   780.3919m  791.5676m 
    1.29500n  606.7760m    1.0359   773.9557m  785.0563m 
    1.29600n  597.8286m    1.0357   767.5194m  778.5450m 
    1.29700n  588.8812m    1.0356   761.0831m  772.0337m 
    1.29800n  579.9169m    1.0354   754.7267m  765.6137m 
    1.29900n  570.9246m    1.0352   748.5027m  759.3454m 
    1.30000n  561.9323m    1.0351   742.2788m  753.0770m 
    1.30100n  552.9401m    1.0349   736.0549m  746.8086m 
    1.30200n  543.9478m    1.0347   729.8310m  740.5403m 
    1.30300n  534.9555m    1.0346   723.6071m  734.2719m 
    1.30400n  525.9632m    1.0344   717.3832m  728.0036m 
    1.30500n  516.9709m    1.0342   711.1593m  721.7352m 
    1.30600n  507.9787m    1.0341   704.9353m  715.4668m 
    1.30700n  498.9864m    1.0339   698.7114m  709.1985m 
    1.30800n  490.8646m    1.0337   692.4592m  702.9624m 
    1.30900n  484.1102m    1.0336   686.1626m  696.7772m 
    1.31000n  477.3559m    1.0334   679.8660m  690.5920m 
    1.31100n  470.6016m    1.0332   673.5694m  684.4067m 
    1.31200n  463.8472m    1.0331   667.2728m  678.2215m 
    1.31300n  457.0929m    1.0329   660.9762m  672.0362m 
    1.31400n  450.3385m    1.0327   654.6796m  665.8510m 
    1.31500n  443.5842m    1.0326   648.3830m  659.6658m 
    1.31600n  436.8298m    1.0324   642.0863m  653.4805m 
    1.31700n  430.0755m    1.0322   635.7897m  647.2953m 
    1.31800n  423.3212m    1.0321   629.4931m  641.1101m 
    1.31900n  416.5668m    1.0319   623.1965m  634.9248m 
    1.32000n  409.8125m    1.0317   616.8999m  628.7396m 
    1.32100n  403.0581m    1.0316   610.6033m  622.5543m 
    1.32200n  396.3038m    1.0314   604.3067m  616.3691m 
    1.32300n  392.0956m    1.0313   598.0148m  610.1442m 
[...]
    3.28200n   -8.6042u 
    3.28300n   -8.3232u 
    3.28400n   -8.0422u 
    3.28500n   -7.8296u 
    3.28600n   -7.9046u 
    3.28700n   -7.9795u 
    3.28800n   -8.0545u 
    3.28900n   -8.1294u 
    3.29000n   -8.2044u 
    3.29100n   -8.2793u 
    3.29200n   -8.3542u 
    3.29300n   -8.2438u 
    3.29400n   -8.1174u 
    3.29500n   -7.9909u 
    3.29600n   -7.8645u 
    3.29700n   -7.7381u 
    3.29800n   -7.6116u 
    3.29900n   -7.4852u 
    3.30000n   -7.3587u 
    3.30100n   -7.2323u 
    3.30200n   -7.1059u 
    3.30300n   -7.0685u 
    3.30400n   -7.0462u 
    3.30500n   -7.0240u 
    3.30600n   -7.0018u 
    3.30700n   -6.9796u 
    3.30800n   -6.9574u 
    3.30900n   -6.9351u 
    3.31000n   -6.9129u 
    3.31100n   -6.8907u 
    3.31200n   -6.8685u 
    3.31300n   -6.8463u 
    3.31400n   -6.8240u 
    3.31500n   -6.8018u 
    3.31600n   -6.7796u 
    3.31700n   -6.7254u 
    3.31800n   -6.6023u 
    3.31900n   -6.4792u 
    3.32000n   -6.3561u 
    3.32100n   -6.2330u 
    3.32200n   -6.1098u 
    3.32300n   -5.9867u 
    3.32400n   -5.8636u 
    3.32500n   -5.7405u 
    3.32600n   -5.6174u 
    3.32700n   -5.4942u 
    3.32800n   -5.3711u 
    3.32900n   -5.2480u 
    3.33000n   -5.1249u 
    3.33100n   -5.0017u 
    3.33200n   -4.8786u 
    3.33300n   -4.8615u 
    3.33400n   -4.8581u 
    3.33500n   -4.8548u 
    3.33600n   -4.8515u 
    3.33700n   -4.8482u 
    3.33800n   -4.8449u 
    3.33900n   -4.8416u 
    3.34000n   -4.8383u 
    3.34100n   -4.8350u 
    3.34200n   -4.8317u 
    3.34300n   -4.8284u 
    3.34400n   -4.8251u 
    3.34500n   -4.8218u 
    3.34600n   -4.8185u 
    3.34700n   -4.8152u 
    3.34800n   -4.8119u 
    3.34900n   -4.8086u 
    3.35000n   -4.8052u 
    3.35100n   -4.8019u 
    3.35200n   -4.7986u 
    3.35300n   -4.7953u 
    3.35400n   -4.7920u 
    3.35500n   -4.7887u 
    3.35600n   -4.7854u 
    3.35700n   -4.7821u 
    3.35800n   -4.7788u 
    3.35900n   -4.7755u 
    3.36000n   -4.7722u 
    3.36100n   -4.7689u 
    3.36200n   -4.7656u 
    3.36300n   -4.7623u 
    3.36400n   -4.7590u 
    3.36500n   -4.7556u 
    3.36600n   -4.6808u 
    3.36700n   -4.5787u 
    3.36800n   -4.4765u 
    3.36900n   -4.3743u 
    3.37000n   -4.2721u 
    3.37100n   -4.1699u 
    3.37200n   -4.0678u 
    3.37300n   -3.9656u 
    3.37400n   -3.8634u 
    3.37500n   -3.7612u 
    3.37600n   -3.6590u 
    3.37700n   -3.5569u 
    3.37800n   -3.4547u 
    3.37900n   -3.3525u 
    3.38000n   -3.2503u 
    3.38100n   -3.1481u 
    3.38200n   -3.0987u 
    3.38300n   -3.0772u 
    3.38400n   -3.0557u 
    3.38500n   -3.0342u 
    3.38600n   -3.0127u 
    3.38700n   -2.9912u 
    3.38800n   -2.9697u 
    3.38900n   -2.9482u 
    3.39000n   -2.9267u 
    3.39100n   -2.9052u 
    3.39200n   -2.8836u 
    3.39300n   -2.8621u 
    3.39400n   -2.8406u 
    3.39500n   -2.8191u 
    3.39600n   -2.7976u 
    3.39700n   -2.7761u 
    3.39800n   -2.7546u 
    3.39900n   -2.7331u 
    3.40000n   -2.7116u 
    3.40100n   -2.6901u 
    3.40200n   -2.6686u 
    3.40300n   -2.6471u 
    3.40400n   -2.6256u 
    3.40500n   -2.6040u 
    3.40600n   -2.5825u 
    3.40700n   -2.5610u 
    3.40800n   -2.5395u 
    3.40900n   -2.5180u 
    3.41000n   -2.4965u 
    3.41100n   -2.4689u 
    3.41200n   -2.3979u 
    3.41300n   -2.3268u 
    3.41400n   -2.2557u 
    3.41500n   -2.1847u 
    3.41600n   -2.1136u 
    3.41700n   -2.0425u 
    3.41800n   -1.9715u 
    3.41900n   -1.9004u 
    3.42000n   -1.8293u 
    3.42100n   -1.7583u 
    3.42200n   -1.6872u 
    3.42300n   -1.6161u 
    3.42400n   -1.5450u 
    3.42500n   -1.4740u 
    3.42600n   -1.4029u 
    3.42700n   -1.3318u 
    3.42800n   -1.2608u 
    3.42900n   -1.1897u 
    3.43000n   -1.1186u 
    3.43100n   -1.0476u 
    3.43200n -976.4968n 
    3.43300n -905.4277n 
    3.43400n -834.3587n 
    3.43500n -763.2896n 
    3.43600n -692.2205n 
    3.43700n -621.1515n 
    3.43800n -550.0824n 
    3.43900n -479.0133n 
    3.44000n -407.9443n 
    3.44100n -336.8752n 
    3.44200n -265.8061n 
    3.44300n -243.7222n 
    3.44400n -249.4757n 
    3.44500n -255.2292n 
    3.44600n -260.9827n 
    3.44700n -266.7362n 
    3.44800n -272.4897n 
    3.44900n -278.2431n 
    3.45000n -283.9966n 
    3.45100n -289.7501n 
    3.45200n -295.5036n 
    3.45300n -301.2571n 
    3.45400n -307.0105n 
    3.45500n -312.7640n 
    3.45600n -318.5175n 
    3.45700n -324.2710n 
    3.45800n -330.0245n 
    3.45900n -335.7779n 
    3.46000n -341.5314n 
    3.46100n -347.2849n 
    3.46200n -353.0384n 
    3.46300n -358.7919n 
    3.46400n -364.5453n 
    3.46500n -370.2988n 
    3.46600n -376.0523n 
    3.46700n -381.8058n 
    3.46800n -387.5593n 
    3.46900n -393.3127n 
    3.47000n -399.0662n 
    3.47100n -404.8197n 
    3.47200n -410.5732n 
    3.47300n -416.3267n 
    3.47400n -422.0801n 
    3.47500n -427.8336n 
    3.47600n -433.5871n 
    3.47700n -439.3406n 
    3.47800n -445.0941n 
    3.47900n -450.8475n 
    3.48000n -455.3223n 
    3.48100n -420.6473n 
    3.48200n -385.9722n 
    3.48300n -351.2972n 
    3.48400n -316.6221n 
    3.48500n -281.9470n 
    3.48600n -247.2720n 
    3.48700n -212.5969n 
    3.48800n -177.9219n 
    3.48900n -143.2468n 
    3.49000n -108.5718n 
    3.49100n  -73.8967n 
    3.49200n  -39.2217n 
    3.49300n   -4.5466n 
    3.49400n   30.1284n 
    3.49500n   64.8035n 
    3.49600n   99.4786n 
    3.49700n  134.1536n 
    3.49800n  168.8287n 
    3.49900n  203.5037n 
    3.50000n  238.1788n 
    3.50100n  272.8538n 
    3.50200n  307.5289n 
    3.50300n  342.2039n 
    3.50400n  376.8790n 
    3.50500n  411.5541n 
    3.50600n  446.2291n 
    3.50700n  480.9042n 
    3.50800n  515.5792n 
    3.50900n  550.2543n 
    3.51000n  584.9293n 
    3.51100n  619.6044n 
    3.51200n  654.2794n 
    3.51300n  688.9545n 
    3.51400n  723.6295n 
    3.51500n  758.3046n 
    3.51600n  792.9797n 
    3.51700n  827.6547n 
    3.51800n  862.3298n 
    3.51900n  897.0048n 
    3.52000n  911.7729n 
    3.52100n  889.4431n 
    3.52200n  867.1133n 
    3.52300n  844.7834n 
    3.52400n  822.4536n 
    3.52500n  800.1238n 
    3.52600n  777.7940n 
    3.52700n  755.4641n 
    3.52800n  733.1343n 
    3.52900n  710.8045n 
    3.53000n  688.4747n 
    3.53100n  666.1448n 
    3.53200n  643.8150n 
    3.53300n  621.4852n 
    3.53400n  599.1554n 
    3.53500n  576.8255n 
    3.53600n  554.4957n 
    3.53700n  532.1659n 
    3.53800n  509.8361n 
    3.53900n  487.5062n 
    3.54000n  465.1764n 
    3.54100n  442.8466n 
    3.54200n  420.5168n 
    3.54300n  398.1869n 
    3.54400n  375.8571n 
    3.54500n  353.5273n 
    3.54600n  331.1975n 
    3.54700n  308.8676n 
    3.54800n  286.5378n 
    3.54900n  264.2080n 
    3.55000n  241.8782n 
    3.55100n  219.5483n 
    3.55200n  197.2185n 
    3.55300n  174.8887n 
    3.55400n  152.5589n 
    3.55500n  130.2290n 
    3.55600n  107.8992n 
    3.55700n   85.5694n 
    3.55800n   63.2396n 
    3.55900n   40.9097n 
    3.56000n   18.5799n 
    3.56100n   -3.7499n 
    3.56200n  -26.0419n 
    3.56300n   -5.4627n 
    3.56400n   15.1165n 
    3.56500n   35.6957n 
    3.56600n   56.2749n 
    3.56700n   76.8541n 
    3.56800n   97.4333n 
    3.56900n  118.0125n 
    3.57000n  138.5917n 
    3.57100n  159.1709n 
    3.57200n  179.7501n 
    3.57300n  200.3293n 
    3.57400n  220.9085n 
    3.57500n  241.4877n 
    3.57600n  262.0669n 
    3.57700n  282.6461n 
    3.57800n  303.2253n 
    3.57900n  323.8045n 
    3.58000n  344.3837n 
    3.58100n  364.9629n 
    3.58200n  385.5421n 
    3.58300n  406.1213n 
    3.58400n  426.7005n 
    3.58500n  447.2797n 
    3.58600n  467.8589n 
    3.58700n  488.4381n 
    3.58800n  509.0173n 
    3.58900n  529.5965n 
    3.59000n  550.1757n 
    3.59100n  570.7549n 
    3.59200n  591.3341n 
    3.59300n  611.9133n 
    3.59400n  632.4925n 
    3.59500n  653.0717n 
    3.59600n  673.6509n 
    3.59700n  694.2301n 
    3.59800n  714.8093n 
    3.59900n  735.3885n 
    3.60000n  755.9677n 
    3.60100n  776.5469n 
    3.60200n  797.1261n 
    3.60300n  817.7053n 
    3.60400n  838.2845n 
    3.60500n  858.8637n 
    3.60600n  879.4429n 
    3.60700n  900.0221n 
    3.60800n  920.6013n 
    3.60900n  941.1805n 
    3.61000n  961.7597n 
    3.61100n  982.3389n 
    3.61200n  963.5740n 
    3.61300n  944.3794n 
    3.61400n  925.1849n 
    3.61500n  905.9903n 
    3.61600n  886.7958n 
    3.61700n  867.6012n 
    3.61800n  848.4067n 
    3.61900n  829.2121n 
    3.62000n  810.0176n 
    3.62100n  790.8231n 
    3.62200n  771.6285n 
    3.62300n  752.4340n 
    3.62400n  733.2394n 
    3.62500n  714.0449n 
    3.62600n  694.8503n 
    3.62700n  675.6558n 
    3.62800n  656.4612n 
    3.62900n  637.2667n 
    3.63000n  618.0721n 
    3.63100n  598.8776n 
    3.63200n  579.6830n 
    3.63300n  560.4885n 
    3.63400n  541.2939n 
    3.63500n  522.0994n 
    3.63600n  502.9048n 
    3.63700n  483.7103n 
    3.63800n  464.5157n 
    3.63900n  445.3212n 
    3.64000n  426.1267n 
    3.64100n  406.9321n 
    3.64200n  387.7376n 
    3.64300n  368.5430n 
    3.64400n  349.3485n 
    3.64500n  330.1539n 
    3.64600n  310.9594n 
    3.64700n  291.7648n 
    3.64800n  272.5703n 
    3.64900n  253.3757n 
    3.65000n  234.1812n 
    3.65100n  214.9866n 
    3.65200n  195.7921n 
    3.65300n  176.5975n 
    3.65400n  157.4030n 
    3.65500n  138.2084n 
    3.65600n  119.0139n 
    3.65700n   99.8193n 
    3.65800n   80.6248n 
    3.65900n   61.4303n 
    3.66000n   42.2357n 
    3.66100n   23.0412n 
    3.66200n    3.8466n 
    3.66300n  -15.3479n 
    3.66400n  -34.5425n 
    3.66500n  -53.7370n 
    3.66600n  -72.9316n 
    3.66700n  -92.1261n 
    3.66800n -111.3207n 
    3.66900n -130.5152n 
    3.67000n -149.7098n 
    3.67100n -163.7060n 
    3.67200n -151.1149n 
    3.67300n -138.5238n 
    3.67400n -125.9326n 
    3.67500n -113.3415n 
    3.67600n -100.7504n 
    3.67700n  -88.1593n 
    3.67800n  -75.5682n 
    3.67900n  -62.9770n 
    3.68000n  -50.3859n 
    3.68100n  -37.7948n 
    3.68200n  -25.2037n 
    3.68300n  -12.6126n 
    3.68400n  -21.4315p 
    3.68500n   12.5697n 
    3.68600n   25.1608n 
    3.68700n   37.7519n 
    3.68800n   50.3430n 
    3.68900n   62.9342n 
    3.69000n   75.5253n 
    3.69100n   88.1164n 
    3.69200n  100.7075n 
    3.69300n  113.2986n 
    3.69400n  125.8898n 
    3.69500n  138.4809n 
    3.69600n  151.0720n 
    3.69700n  163.6631n 
    3.69800n  176.2542n 
    3.69900n  188.8454n 
    3.70000n  201.4365n 
    3.70100n  214.0276n 
    3.70200n  226.6187n 
    3.70300n  239.2098n 
    3.70400n  251.8010n 
    3.70500n  264.3921n 
    3.70600n  276.9832n 
    3.70700n  289.5743n 
    3.70800n  302.1654n 
    3.70900n  314.7566n 
    3.71000n  327.3477n 
    3.71100n  339.9388n 
    3.71200n  352.5299n 
    3.71300n  365.1210n 
    3.71400n  377.7122n 
    3.71500n  390.3033n 
    3.71600n  402.8944n 
    3.71700n  415.4855n 
    3.71800n  428.0766n 
    3.71900n  440.6678n 
    3.72000n  453.2589n 
    3.72100n  465.8500n 
    3.72200n  478.4411n 
    3.72300n  491.0322n 
    3.72400n  503.6234n 
    3.72500n  516.2145n 
    3.72600n  528.8056n 
    3.72700n  541.3967n 
    3.72800n  553.9878n 
    3.72900n  566.5790n 
    3.73000n  579.1701n 
    3.73100n  591.7612n 
    3.73200n  604.3523n 
    3.73300n  616.9434n 
    3.73400n  629.5346n 
    3.73500n  642.1257n 
    3.73600n  654.7168n 
    3.73700n  667.3079n 
    3.73800n  679.8990n 
    3.73900n  692.4902n 
    3.74000n  705.0813n 
    3.74100n  717.6724n 
    3.74200n  730.2635n 
    3.74300n  742.8546n 
    3.74400n  755.4458n 
    3.74500n  764.5923n 
    3.74600n  752.8028n 
    3.74700n  741.0133n 
    3.74800n  729.2238n 
    3.74900n  717.4342n 
    3.75000n  705.6447n 
    3.75100n  693.8552n 
    3.75200n  682.0657n 
    3.75300n  670.2762n 
    3.75400n  658.4867n 
    3.75500n  646.6972n 
    3.75600n  634.9076n 
    3.75700n  623.1181n 
    3.75800n  611.3286n 
    3.75900n  599.5391n 
    3.76000n  587.7496n 
    3.76100n  575.9601n 
    3.76200n  564.1705n 
    3.76300n  552.3810n 
    3.76400n  540.5915n 
    3.76500n  528.8020n 
    3.76600n  517.0125n 
    3.76700n  505.2230n 
    3.76800n  493.4335n 
    3.76900n  481.6439n 
    3.77000n  469.8544n 
    3.77100n  458.0649n 
    3.77200n  446.2754n 
    3.77300n  434.4859n 
    3.77400n  422.6964n 
    3.77500n  410.9068n 
    3.77600n  399.1173n 
    3.77700n  387.3278n 
    3.77800n  375.5383n 
    3.77900n  363.7488n 
    3.78000n  351.9593n 
    3.78100n  340.1698n 
    3.78200n  328.3802n 
    3.78300n  316.5907n 
    3.78400n  304.8012n 
    3.78500n  293.0117n 
    3.78600n  281.2222n 
    3.78700n  269.4327n 
    3.78800n  257.6432n 
    3.78900n  245.8536n 
    3.79000n  234.0641n 
    3.79100n  222.2746n 
    3.79200n  210.4851n 
    3.79300n  198.6956n 
    3.79400n  186.9061n 
    3.79500n  175.1165n 
    3.79600n  163.3270n 
    3.79700n  151.5375n 
    3.79800n  139.7480n 
    3.79900n  127.9585n 
    3.80000n  116.1690n 
    3.80100n  104.3795n 
    3.80200n   92.5899n 
    3.80300n   80.8004n 
    3.80400n   69.0109n 
    3.80500n   57.2214n 
    3.80600n   45.4319n 
    3.80700n   33.6424n 
    3.80800n   21.8528n 
    3.80900n   10.0633n 
    3.81000n   -1.7262n 
    3.81100n  -13.5157n 
    3.81200n  -25.3052n 
    3.81300n  -37.0947n 
    3.81400n  -48.8842n 
    3.81500n  -60.6738n 
    3.81600n  -72.4633n 
    3.81700n  -84.2528n 
    3.81800n  -96.0423n 
    3.81900n -107.8318n 
    3.82000n -119.6213n 
    3.82100n -131.4109n 
    3.82200n -143.2004n 
    3.82300n -154.9899n 
    3.82400n -166.7794n 
    3.82500n -178.5689n 
    3.82600n -190.3584n 
    3.82700n -202.1479n 
    3.82800n -213.9375n 
    3.82900n -225.7270n 
    3.83000n -237.5165n 
    3.83100n -249.3060n 
    3.83200n -261.0955n 
    3.83300n -272.8850n 
    3.83400n -284.6745n 
    3.83500n -296.4641n 
    3.83600n -308.2536n 
    3.83700n -320.0431n 
    3.83800n -331.8326n 
    3.83900n -343.6221n 
    3.84000n -355.4116n 
    3.84100n -367.2012n 
    3.84200n -378.9907n 
    3.84300n -390.7802n 
    3.84400n -400.3241n 
    3.84500n -391.7623n 
    3.84600n -383.2006n 
    3.84700n -374.6388n 
    3.84800n -366.0770n 
    3.84900n -357.5153n 
    3.85000n -348.9535n 
    3.85100n -340.3918n 
    3.85200n -331.8300n 
    3.85300n -323.2682n 
    3.85400n -314.7065n 
    3.85500n -306.1447n 
    3.85600n -297.5829n 
    3.85700n -289.0212n 
    3.85800n -280.4594n 
    3.85900n -271.8976n 
    3.86000n -263.3359n 
    3.86100n -254.7741n 
    3.86200n -246.2123n 
    3.86300n -237.6506n 
    3.86400n -229.0888n 
    3.86500n -220.5270n 
    3.86600n -211.9653n 
    3.86700n -203.4035n 
    3.86800n -194.8417n 
    3.86900n -186.2800n 
    3.87000n -177.7182n 
    3.87100n -169.1564n 
    3.87200n -160.5947n 
    3.87300n -152.0329n 
    3.87400n -143.4711n 
    3.87500n -134.9094n 
    3.87600n -126.3476n 
    3.87700n -117.7858n 
    3.87800n -109.2241n 
    3.87900n -100.6623n 
    3.88000n  -92.1005n 
    3.88100n  -83.5388n 
    3.88200n  -74.9770n 
    3.88300n  -66.4152n 
    3.88400n  -57.8535n 
    3.88500n  -49.2917n 
    3.88600n  -40.7299n 
    3.88700n  -32.1682n 
    3.88800n  -23.6064n 
    3.88900n  -15.0446n 
    3.89000n   -6.4829n 
    3.89100n    2.0789n 
    3.89200n   10.6407n 
    3.89300n   19.2024n 
    3.89400n   27.7642n 
    3.89500n   36.3260n 
    3.89600n   44.8877n 
    3.89700n   53.4495n 
    3.89800n   62.0113n 
    3.89900n   70.5730n 
    3.90000n   79.1348n 
    3.90100n   87.6966n 
    3.90200n   96.2583n 
    3.90300n  104.8201n 
    3.90400n  113.3819n 
    3.90500n  121.9436n 
    3.90600n  130.5054n 
    3.90700n  139.0672n 
    3.90800n  147.6289n 
    3.90900n  156.1907n 
    3.91000n  164.7525n 
    3.91100n  173.3142n 
    3.91200n  181.8760n 
    3.91300n  190.4378n 
    3.91400n  198.9995n 
    3.91500n  207.5613n 
    3.91600n  216.1231n 
    3.91700n  224.6848n 
    3.91800n  233.2466n 
    3.91900n  241.8084n 
    3.92000n  250.3701n 
    3.92100n  258.9319n 
    3.92200n  267.4937n 
    3.92300n  276.0554n 
    3.92400n  284.6172n 
    3.92500n  293.1790n 
    3.92600n  301.7407n 
    3.92700n  310.3025n 
    3.92800n  318.8643n 
    3.92900n  327.4260n 
    3.93000n  335.9878n 
    3.93100n  344.5496n 
    3.93200n  353.1113n 
    3.93300n  361.6731n 
    3.93400n  370.2349n 
    3.93500n  378.7966n 
    3.93600n  387.3584n 
    3.93700n  395.9202n 
    3.93800n  404.4819n 
    3.93900n  413.0437n 
    3.94000n  421.6055n 
    3.94100n  430.1672n 
    3.94200n  438.7290n 
    3.94300n  447.2907n 
    3.94400n  455.8525n 
    3.94500n  464.4143n 
    3.94600n  472.9760n 
    3.94700n  481.5378n 
    3.94800n  490.0996n 
    3.94900n  498.6613n 
    3.95000n  507.2231n 
    3.95100n  515.7849n 
    3.95200n  524.3466n 
    3.95300n  532.9084n 
    3.95400n  541.4702n 
    3.95500n  550.0319n 
    3.95600n  558.5937n 
    3.95700n  567.1555n 
    3.95800n  548.9538n 
    3.95900n  514.7778n 
    3.96000n  480.6017n 
    3.96100n  446.4256n 
    3.96200n  412.2495n 
    3.96300n  378.0734n 
    3.96400n  343.8974n 
    3.96500n  309.7213n 
    3.96600n  275.5452n 
    3.96700n  241.3691n 
    3.96800n  207.1931n 
    3.96900n  173.0170n 
    3.97000n  138.8409n 
    3.97100n  104.6648n 
    3.97200n   70.4888n 
    3.97300n   36.3127n 
    3.97400n    2.1366n 
    3.97500n  -32.0395n 
    3.97600n  -66.2155n 
    3.97700n -100.3916n 
    3.97800n -134.5677n 
    3.97900n -168.7438n 
    3.98000n -202.9198n 
    3.98100n -237.0959n 
    3.98200n -271.2720n 
    3.98300n -305.4481n 
    3.98400n -339.6242n 
    3.98500n -373.8002n 
    3.98600n -407.9763n 
    3.98700n -442.1524n 
    3.98800n -476.3285n 
    3.98848n -492.7330n 
y
 meas_current_selected= -81.9583f  from=   0.             to=   3.9885n
 meas_avg_power_selected=  20.5487u
 meas_current_unselected=-181.1119f  from=   0.             to=   3.9885n
 meas_avg_power_unselected=  45.4088u

          ***** job concluded
 ****** HSPICE -- K-2015.06-SP2 linux64 (Nov 18 2015) ******                    
 ******  
 .title sram write power measurement circuit

 ****** job statistics summary tnom=  25.000 temp=  25.000 ******
  
  
 ******  Machine Information  ******
 CPU:
 model name	: Intel(R) Xeon(R) CPU E7- 4850  @ 2.00GHz
 cpu MHz	: 1994.935
  
 OS:
 Linux version 2.6.32-754.29.2.el6.x86_64 (mockbuild@x86-02.bsys.centos.org) (gcc version 4.4.7 20120313 (Red Hat 4.4.7-23) (GCC) ) #1 SMP Tue May 12 17:39:04 UTC 2020


  ******  HSPICE Threads Information  ******

  Command Line Threads Count :     1
  Available CPU Count        :    80
  Actual Threads Count       :     1


  ******  Circuit Statistics  ******
  # nodes       =   18667 # elements   =    7233
  # resistors   =    1029 # capacitors =    2048 # inductors   =       0
  # mutual_inds =       0 # vccs       =       0 # vcvs        =       0
  # cccs        =       0 # ccvs       =       0 # volt_srcs   =       9
  # curr_srcs   =       0 # diodes     =       0 # bjts        =       0
  # jfets       =       0 # mosfets    =    4147 # U elements  =       0
  # T elements  =       0 # W elements =       0 # B elements  =       0
  # S elements  =       0 # P elements =       0 # va device   =       0
  # vector_srcs =       0 # N elements =       0


  ******  Runtime Statistics (seconds)  ******

  analysis           time    # points   tot. iter  conv.iter
  op point           0.19           1           8
  transient          4.63        3989         580         211 rev=         9
  readin             0.21
  errchk             0.38
  setup              0.67
  output             0.00


           peak memory used        238.67 megabytes
           total cpu time            6.24 seconds
           total elapsed time        6.03 seconds
           job started at     15:18:23 07/08/2020
           job ended   at     15:18:29 07/08/2020



>info:         ***** hspice job concluded
 lic: Release hspice token(s) 
 lic: total license checkout elapse time:        0.25(s)
