Using: /usr/local/packages/synopsys_2015/hspice/hspice/linux64/hspice sram_writep_power.sp
 ****** HSPICE -- K-2015.06-SP2 linux64 (Nov 18 2015) ******                    
  Copyright (c) 1986 - 2020 by Synopsys, Inc. All Rights Reserved.              
  This software and the associated documentation are proprietary
  to Synopsys, Inc. This software may only be used in accordance
  with the terms and conditions of a written license agreement with
  Synopsys, Inc. All other use, reproduction, or distribution of
  this software is strictly prohibited.
  Input File: sram_writep_power.sp                                              
  Command line options: /usr/local/packages/synopsys_2015/hspice/hspice/linux64/hspice sram_writep_power.sp
 lic:  
 lic: FLEXlm: v11.2.1 
 lic: USER:   aarora1              HOSTNAME: luigi 
 lic: HOSTID: "782bcb44a06e"       PID:      49157 
 lic: Using FLEXlm license file: 
 lic: /usr/local/packages/synopsys_2015/key 
 lic: Checkout 1 hspice 
 lic: License/Maintenance for hspice will expire on 14-jan-2021/2019.06 
 lic: 2(in_use)/100(total) FLOATING license(s) on SERVER /usr/local/packages/synopsys_2015/key 
 lic:   
 Init: read install configuration file: /usr/local/packages/synopsys_2015/hspice/hspice/meta.cfg
  **info** (sram_writep_power.sp:18) DC voltage reset to initial transient source value in source        0:vdatain. new dc=  0.1000D+01
  **warning** (v_$vdatain:0) pulse rise time is  < or = zero, reset to tstep
  **warning** (v_$vdatain:0) pulse fall time is  < or = zero, reset to tstep
  **warning** (nmos:mntgate (../basic_subcircuits.l:162)) Warning:  Acde = 0.245565 may be too small in BSIM4 model with w=2e-07 l=2.2e-08.
  **warning** (sram_writep_power.sp:3384) Unable to find referenced node xprechargesa.n_1_2; Output variable ignored. Specify a valid node.
  

  **warning** the following singular supplies were terminated to 1 meg resistor 
          supply       node1            node2
(../process_data.l:39)vclmomtjn               0:vclmpmtj         defined in subckt 0                     0:0                defined in subckt 0               
(../process_data.l:34)vsupply                 0:vdd              defined in subckt 0                     0:0                defined in subckt 0               
(../process_data.l:38)vrefmtjn                0:vrefmtj          defined in subckt 0                     0:0                defined in subckt 0               
(../process_data.l:37)vsram                   0:vsram            defined in subckt 0                     0:0                defined in subckt 0               
(../process_data.l:40)vsram_n                 0:vsram_n          defined in subckt 0                     0:0                defined in subckt 0               
      
  **warning** (v_$vdatain:0) pulse rise time is  < or = zero, reset to tstep
  **warning** (v_$vdatain:0) pulse fall time is  < or = zero, reset to tstep
 **info** set option symb=1 internally to help for convergence.
 *****************************************************************
 ******  option summary
 ******
 runlvl  = 3         bypass  = 2         
 **info** dc convergence successful at Newton-Raphson method 

   *** data name = sweep_data , index =     1 ***

 ******
 .title sram write power measurement circuit

 ****** transient analysis tnom=  25.000 temp=  25.000 ******
x

 time         voltage    voltage    voltage    voltage   
             tgate_l    tgate_r    n_bl_0     n_bl_128   
    0.        999.9990m  489.4528n  999.9996m  970.9168m 
    1.00000p  945.2056m  718.5794u  987.3752m  970.7334m 
    2.00000p  949.4211m    7.6765m  978.7951m  969.9463m 
    3.00000p  952.0549m   12.5852m  973.6371m  967.9304m 
    4.00000p  954.2482m   16.9408m  969.1587m  965.7174m 
    5.00000p  955.2077m   19.6917m  966.1757m  963.1944m 
    6.00000p  956.1672m   22.4427m  963.1927m  960.6713m 
    7.00000p  956.6570m   25.2225m  960.5342m  958.4217m 
    8.00000p  956.4097m   28.0478m  958.3849m  956.6014m 
    9.00000p  956.1625m   30.8730m  956.2356m  954.7811m 
   10.00000p  955.9152m   33.6982m  954.0862m  952.9607m 
   11.00000p  954.9703m   35.7693m  952.3697m  951.7144m 
   12.00000p  953.9533m   37.7626m  950.6979m  950.5274m 
   13.00000p  952.9364m   39.7559m  949.0261m  949.3403m 
   14.00000p  951.9195m   41.7492m  947.3543m  948.1532m 
   15.00000p  950.8421m   43.2544m  945.7439m  947.0033m 
   16.00000p  949.5272m   42.8385m  944.3753m  945.9997m 
   17.00000p  948.2123m   42.4227m  943.0066m  944.9960m 
   18.00000p  946.8974m   42.0068m  941.6380m  943.9924m 
   19.00000p  945.5825m   41.5910m  940.2694m  942.9888m 
   20.00000p  944.2676m   41.1752m  938.9008m  941.9851m 
   21.00000p  942.9527m   40.7593m  937.5321m  940.9815m 
   22.00000p  941.6108m   40.6082m  936.1048m  939.9424m 
   23.00000p  940.1447m   41.6745m  934.4075m  938.7404m 
   24.00000p  938.6785m   42.7408m  932.7103m  937.5384m 
   25.00000p  937.2124m   43.8071m  931.0130m  936.3364m 
   26.00000p  935.7463m   44.8734m  929.3157m  935.1344m 
   27.00000p  934.1404m   47.1847m  927.4001m  933.7758m 
   28.00000p  932.1169m   53.2138m  924.8326m  931.9494m 
   29.00000p  930.0935m   59.2430m  922.2651m  930.1230m 
   30.00000p  928.0700m   65.2722m  919.6975m  928.2965m 
   31.00000p  926.0466m   71.3014m  917.1300m  926.4701m 
   32.00000p  924.0232m   77.3305m  914.5624m  924.6437m 
   33.00000p  921.9997m   83.3597m  911.9949m  922.8173m 
   34.00000p  919.4560m   94.3667m  908.9828m  920.3606m 
   35.00000p  916.6740m  107.6534m  905.7671m  917.6152m 
   36.00000p  913.8920m  120.9400m  902.5515m  914.8698m 
   37.00000p  911.1099m  134.2267m  899.3358m  912.1245m 
   38.00000p  908.3279m  147.5134m  896.1202m  909.3791m 
   39.00000p  905.5459m  160.8000m  892.9045m  906.6338m 
   40.00000p  902.7639m  174.0867m  889.6889m  903.8884m 
   41.00000p  899.8380m  189.3602m  886.4361m  900.9596m 
   42.00000p  896.6642m  208.0563m  883.1193m  897.7149m 
   43.00000p  893.4904m  226.7524m  879.8025m  894.4701m 
   44.00000p  890.3166m  245.4485m  876.4857m  891.2254m 
   45.00000p  887.1429m  264.1446m  873.1689m  887.9807m 
   46.00000p  883.9691m  282.8407m  869.8522m  884.7359m 
   47.00000p  880.7953m  301.5368m  866.5354m  881.4912m 
   48.00000p  877.6215m  320.2329m  863.2186m  878.2464m 
   49.00000p  874.4477m  338.9290m  859.9018m  875.0017m 
   50.00000p  871.2739m  357.6251m  856.5850m  871.7569m 
   51.00000p  870.3862m  376.4071m  857.7184m  870.6254m 
   52.00000p  869.4984m  395.1890m  858.8517m  869.4938m 
   53.00000p  868.6107m  413.9709m  859.9850m  868.3622m 
   54.00000p  867.7230m  432.7528m  861.1183m  867.2307m 
   55.00000p  866.8352m  451.5347m  862.2516m  866.0991m 
   56.00000p  866.2409m  471.5643m  863.5578m  865.2747m 
   57.00000p  866.1501m  493.0542m  865.1993m  864.9872m 
   58.00000p  866.7748m  516.5605m  867.3209m  865.4638m 
   59.00000p  867.3996m  540.0669m  869.4424m  865.9404m 
   60.00000p  868.0243m  563.5733m  871.5639m  866.4170m 
   61.00000p  868.6490m  587.0797m  873.6854m  866.8936m 
   62.00000p  870.1543m  609.4999m  876.3307m  868.3358m 
   63.00000p  872.3492m  631.0694m  879.3862m  870.5345m 
   64.00000p  874.5442m  652.6389m  882.4417m  872.7332m 
   65.00000p  876.7392m  674.2084m  885.4972m  874.9318m 
   66.00000p  878.9341m  695.7779m  888.5527m  877.1305m 
   67.00000p  881.1291m  717.3473m  891.6082m  879.3291m 
   68.00000p  883.3241m  738.9168m  894.6637m  881.5278m 
   69.00000p  885.5190m  760.4863m  897.7192m  883.7265m 
   70.00000p  888.5056m  774.9045m  900.9839m  886.7518m 
   71.00000p  891.6038m  788.3149m  904.2781m  889.8937m 
   72.00000p  894.7020m  801.7253m  907.5723m  893.0355m 
   73.00000p  897.8002m  815.1357m  910.8664m  896.1774m 
   74.00000p  900.8984m  828.5461m  914.1606m  899.3192m 
   75.00000p  903.9966m  841.9565m  917.4548m  902.4610m 
   76.00000p  907.0947m  855.3669m  920.7490m  905.6029m 
   77.00000p  910.1432m  864.2222m  923.7083m  908.6958m 
   78.00000p  913.1687m  870.9832m  926.5137m  911.7661m 
   79.00000p  916.1943m  877.7443m  929.3191m  914.8364m 
   80.00000p  919.2199m  884.5054m  932.1244m  917.9068m 
   81.00000p  922.2454m  891.2665m  934.9298m  920.9771m 
   82.00000p  925.2710m  898.0276m  937.7352m  924.0475m 
   83.00000p  928.2966m  904.7887m  940.5405m  927.1178m 
   84.00000p  931.3221m  911.5498m  943.3459m  930.1881m 
   85.00000p  934.3477m  918.3109m  946.1513m  933.2585m 
   86.00000p  937.3733m  925.0720m  948.9566m  936.3288m 
   87.00000p  939.7690m  928.7866m  951.0084m  938.7559m 
   88.00000p  942.0514m  931.9529m  952.9245m  941.0671m 
   89.00000p  944.3338m  935.1191m  954.8406m  943.3783m 
   90.00000p  946.6162m  938.2854m  956.7567m  945.6895m 
   91.00000p  948.8986m  941.4516m  958.6728m  948.0007m 
   92.00000p  951.1810m  944.6179m  960.5889m  950.3119m 
   93.00000p  953.4634m  947.7841m  962.5050m  952.6232m 
   94.00000p  955.7457m  950.9504m  964.4211m  954.9344m 
   95.00000p  958.0281m  954.1166m  966.3372m  957.2456m 
   96.00000p  960.3105m  957.2829m  968.2533m  959.5568m 
   97.00000p  962.5929m  960.4491m  970.1694m  961.8680m 
   98.00000p  964.7345m  963.3568m  971.9602m  964.0387m 
   99.00000p  966.1191m  964.8739m  973.0771m  965.4534m 
  100.00000p  967.5037m  966.3910m  974.1940m  966.8681m 
  101.00000p  968.8883m  967.9081m  975.3109m  968.2829m 
  102.00000p  970.2729m  969.4252m  976.4278m  969.6976m 
  103.00000p  971.6575m  970.9423m  977.5447m  971.1123m 
  104.00000p  973.0421m  972.4594m  978.6616m  972.5270m 
  105.00000p  974.4267m  973.9765m  979.7785m  973.9417m 
  106.00000p  975.8113m  975.4936m  980.8954m  975.3565m 
  107.00000p  977.1958m  977.0107m  982.0123m  976.7712m 
  108.00000p  978.5804m  978.5278m  983.1292m  978.1859m 
  109.00000p  979.9650m  980.0449m  984.2461m  979.6006m 
  110.00000p  981.1484m  981.3187m  985.1957m  980.8078m 
  111.00000p  981.8497m  982.0098m  985.7446m  981.5179m 
  112.00000p  982.5511m  982.7009m  986.2934m  982.2281m 
  113.00000p  983.2525m  983.3921m  986.8423m  982.9382m 
  114.00000p  983.9539m  984.0832m  987.3911m  983.6483m 
  115.00000p  984.6552m  984.7743m  987.9400m  984.3584m 
  116.00000p  985.3566m  985.4654m  988.4888m  985.0685m 
  117.00000p  986.0580m  986.1565m  989.0377m  985.7787m 
  118.00000p  986.7594m  986.8476m  989.5865m  986.4888m 
  119.00000p  987.4607m  987.5388m  990.1353m  987.1989m 
  120.00000p  988.1621m  988.2299m  990.6842m  987.9090m 
  121.00000p  988.8635m  988.9210m  991.2330m  988.6191m 
  122.00000p  989.5648m  989.6121m  991.7819m  989.3293m 
  123.00000p  990.2662m  990.3032m  992.3307m  990.0394m 
  124.00000p  990.9676m  990.9944m  992.8796m  990.7495m 
  125.00000p  991.6690m  991.6855m  993.4284m  991.4596m 
  126.00000p  992.3703m  992.3766m  993.9773m  992.1697m 
  127.00000p  992.6780m  992.6763m  994.2203m  992.4850m 
  128.00000p  992.9340m  992.9246m  994.4233m  992.7485m 
  129.00000p  993.1900m  993.1730m  994.6262m  993.0120m 
  130.00000p  993.4460m  993.4213m  994.8291m  993.2755m 
  131.00000p  993.7020m  993.6696m  995.0321m  993.5390m 
  132.00000p  993.9580m  993.9180m  995.2350m  993.8025m 
  133.00000p  994.2140m  994.1663m  995.4379m  994.0660m 
  134.00000p  994.4700m  994.4147m  995.6409m  994.3295m 
  135.00000p  994.7260m  994.6630m  995.8438m  994.5930m 
  136.00000p  994.9820m  994.9113m  996.0467m  994.8565m 
  137.00000p  995.2380m  995.1597m  996.2497m  995.1200m 
  138.00000p  995.4941m  995.4080m  996.4526m  995.3835m 
  139.00000p  995.7501m  995.6564m  996.6555m  995.6470m 
  140.00000p  996.0061m  995.9047m  996.8585m  995.9105m 
  141.00000p  996.2621m  996.1531m  997.0614m  996.1740m 
  142.00000p  996.5181m  996.4014m  997.2643m  996.4375m 
  143.00000p  996.7741m  996.6497m  997.4673m  996.7010m 
  144.00000p  997.0301m  996.8981m  997.6702m  996.9645m 
  145.00000p  997.2861m  997.1464m  997.8731m  997.2280m 
  146.00000p  997.5421m  997.3948m  998.0761m  997.4915m 
  147.00000p  997.7981m  997.6431m  998.2790m  997.7550m 
  148.00000p  997.8899m  997.7320m  998.3503m  997.8484m 
  149.00000p  997.9546m  997.7948m  998.3999m  997.9139m 
  150.00000p  998.0194m  997.8575m  998.4495m  997.9794m 
  151.00000p  998.0841m  997.9203m  998.4991m  998.0448m 
  152.00000p  998.1489m  997.9830m  998.5487m  998.1103m 
  153.00000p  998.2136m  998.0458m  998.5983m  998.1758m 
  154.00000p  998.2783m  998.1085m  998.6479m  998.2412m 
  155.00000p  998.3431m  998.1712m  998.6975m  998.3067m 
  156.00000p  998.4078m  998.2340m  998.7471m  998.3722m 
  157.00000p  998.4726m  998.2967m  998.7967m  998.4376m 
  158.00000p  998.5373m  998.3595m  998.8463m  998.5031m 
  159.00000p  998.6021m  998.4222m  998.8959m  998.5686m 
  160.00000p  998.6668m  998.4849m  998.9455m  998.6340m 
  161.00000p  998.7316m  998.5477m  998.9951m  998.6995m 
  162.00000p  998.7963m  998.6104m  999.0447m  998.7650m 
  163.00000p  998.8611m  998.6732m  999.0943m  998.8304m 
  164.00000p  998.9258m  998.7359m  999.1439m  998.8959m 
  165.00000p  998.9906m  998.7987m  999.1935m  998.9614m 
  166.00000p  999.0553m  998.8614m  999.2431m  999.0268m 
  167.00000p  999.1201m  998.9241m  999.2927m  999.0923m 
  168.00000p  999.1848m  998.9869m  999.3423m  999.1578m 
  169.00000p  999.2496m  999.0496m  999.3919m  999.2232m 
  170.00000p  999.3143m  999.1124m  999.4415m  999.2887m 
  171.00000p  999.3791m  999.1751m  999.4911m  999.3542m 
  172.00000p  999.4438m  999.2379m  999.5407m  999.4196m 
  173.00000p  999.5086m  999.3006m  999.5903m  999.4851m 
  174.00000p  999.5733m  999.3633m  999.6399m  999.5506m 
  175.00000p  999.6280m  999.4166m  999.6820m  999.6060m 
  176.00000p  999.6372m  999.4272m  999.6901m  999.6160m 
  177.00000p  999.6464m  999.4377m  999.6983m  999.6259m 
  178.00000p  999.6555m  999.4483m  999.7065m  999.6359m 
  179.00000p  999.6647m  999.4589m  999.7146m  999.6459m 
  180.00000p  999.6739m  999.4694m  999.7228m  999.6558m 
  181.00000p  999.6831m  999.4800m  999.7309m  999.6658m 
  182.00000p  999.6923m  999.4906m  999.7391m  999.6758m 
  183.00000p  999.7014m  999.5011m  999.7472m  999.6858m 
  184.00000p  999.7106m  999.5117m  999.7554m  999.6957m 
  185.00000p  999.7198m  999.5222m  999.7635m  999.7057m 
  186.00000p  999.7290m  999.5328m  999.7717m  999.7157m 
  187.00000p  999.7381m  999.5434m  999.7798m  999.7256m 
  188.00000p  999.7473m  999.5539m  999.7880m  999.7356m 
  189.00000p  999.7565m  999.5645m  999.7961m  999.7456m 
  190.00000p  999.7657m  999.5751m  999.8043m  999.7556m 
  191.00000p  999.7749m  999.5856m  999.8124m  999.7655m 
  192.00000p  999.7840m  999.5962m  999.8206m  999.7755m 
  193.00000p  999.7932m  999.6067m  999.8287m  999.7855m 
  194.00000p  999.8024m  999.6173m  999.8369m  999.7955m 
  195.00000p  999.8116m  999.6279m  999.8450m  999.8054m 
  196.00000p  999.8208m  999.6384m  999.8532m  999.8154m 
  197.00000p  999.8299m  999.6490m  999.8613m  999.8254m 
  198.00000p  999.8391m  999.6596m  999.8695m  999.8353m 
  199.00000p  999.8483m  999.6701m  999.8776m  999.8453m 
  200.00000p  999.8575m  999.6807m  999.8858m  999.8553m 
  201.00000p  999.8666m  999.6912m  999.8939m  999.8653m 
  202.00000p  999.8758m  999.7018m  999.9021m  999.8752m 
  203.00000p  999.8850m  999.7124m  999.9102m  999.8852m 
  204.00000p  999.8942m  999.7229m  999.9184m  999.8952m 
  205.00000p  999.9034m  999.7335m  999.9265m  999.9051m 
  206.00000p  999.9125m  999.7441m  999.9347m  999.9151m 
  207.00000p  999.9217m  999.7546m  999.9428m  999.9251m 
  208.00000p  999.9309m  999.7652m  999.9510m  999.9351m 
  209.00000p  999.9401m  999.7757m  999.9591m  999.9450m 
  210.00000p  999.9492m  999.7863m  999.9673m  999.9550m 
  211.00000p  999.9528m  999.7905m  999.9693m  999.9586m 
  212.00000p  999.9544m  999.7924m  999.9691m  999.9600m 
  213.00000p  999.9560m  999.7943m  999.9689m  999.9613m 
  214.00000p  999.9576m  999.7962m  999.9686m  999.9627m 
  215.00000p  999.9592m  999.7982m  999.9684m  999.9640m 
  216.00000p  999.9608m  999.8001m  999.9682m  999.9654m 
  217.00000p  999.9624m  999.8020m  999.9680m  999.9667m 
  218.00000p  999.9640m  999.8039m  999.9678m  999.9681m 
  219.00000p  999.9656m  999.8058m  999.9676m  999.9694m 
  220.00000p  999.9672m  999.8077m  999.9674m  999.9708m 
  221.00000p    1.0004     1.0002     1.0007     1.0003  
  222.00000p    1.0014     1.0013     1.0025     1.0011  
  223.00000p    1.0023     1.0023     1.0044     1.0019  
  224.00000p    1.0033     1.0034     1.0062     1.0027  
  225.00000p    1.0043     1.0045     1.0080     1.0036  
  226.00000p    1.0054     1.0056     1.0093     1.0045  
  227.00000p    1.0064     1.0067     1.0104     1.0055  
  228.00000p    1.0074     1.0078     1.0114     1.0066  
  229.00000p    1.0085     1.0089     1.0123     1.0077  
  230.00000p    1.0095     1.0100     1.0133     1.0088  
  231.00000p    1.0105     1.0110     1.0143     1.0098  
  232.00000p    1.0116     1.0121     1.0153     1.0108  
  233.00000p    1.0126     1.0132     1.0163     1.0117  
  234.00000p    1.0136     1.0143     1.0173     1.0126  
  235.00000p    1.0146     1.0154     1.0184     1.0135  
  236.00000p    1.0156     1.0165     1.0194     1.0145  
  237.00000p    1.0166     1.0176     1.0205     1.0154  
  238.00000p    1.0176     1.0187     1.0215     1.0163  
  239.00000p    1.0187     1.0198     1.0225     1.0172  
  240.00000p    1.0197     1.0208     1.0236     1.0182  
  241.00000p    1.0207     1.0219     1.0246     1.0191  
  242.00000p    1.0217     1.0230     1.0256     1.0200  
  243.00000p    1.0227     1.0241     1.0267     1.0209  
  244.00000p    1.0237     1.0252     1.0277     1.0219  
  245.00000p    1.0247     1.0263     1.0287     1.0228  
  246.00000p    1.0257     1.0274     1.0298     1.0237  
  247.00000p    1.0266     1.0285     1.0306     1.0244  
  248.00000p    1.0273     1.0295     1.0310     1.0244  
  249.00000p    1.0279     1.0305     1.0314     1.0245  
  250.00000p    1.0285     1.0315     1.0318     1.0246  
  251.00000p    1.0292     1.0325     1.0323     1.0246  
  252.00000p    1.0298     1.0336     1.0327     1.0247  
  253.00000p    1.0304     1.0346     1.0331     1.0248  
  254.00000p    1.0311     1.0356     1.0335     1.0248  
  255.00000p    1.0317     1.0366     1.0339     1.0249  
  256.00000p    1.0323     1.0376     1.0343     1.0249  
  257.00000p    1.0330     1.0387     1.0347     1.0250  
  258.00000p    1.0336     1.0397     1.0351     1.0251  
  259.00000p    1.0342     1.0407     1.0355     1.0251  
  260.00000p    1.0349     1.0417     1.0360     1.0252  
  261.00000p    1.0353     1.0427     1.0361     1.0249  
  262.00000p    1.0352     1.0437     1.0358     1.0240  
  263.00000p    1.0351     1.0447     1.0356     1.0232  
  264.00000p    1.0351     1.0456     1.0353     1.0223  
  265.00000p    1.0350     1.0466     1.0350     1.0214  
  266.00000p    1.0350     1.0476     1.0348     1.0205  
  267.00000p    1.0349     1.0485     1.0345     1.0197  
  268.00000p    1.0349     1.0495     1.0342     1.0188  
  269.00000p    1.0348     1.0505     1.0340     1.0179  
  270.00000p    1.0347     1.0515     1.0337     1.0170  
  271.00000p    1.0342     1.0521     1.0326     1.0159  
  272.00000p    1.0329     1.0522     1.0302     1.0145  
  273.00000p    1.0317     1.0524     1.0278     1.0132  
  274.00000p    1.0304     1.0525     1.0255     1.0117  
  275.00000p    1.0291     1.0526     1.0235     1.0102  
  276.00000p    1.0275     1.0526     1.0218     1.0085  
  277.00000p    1.0259     1.0525     1.0201     1.0069  
  278.00000p    1.0244     1.0525     1.0184     1.0052  
  279.00000p    1.0228     1.0525     1.0167     1.0036  
  280.00000p    1.0212     1.0525     1.0150     1.0019  
  281.00000p    1.0195     1.0525     1.0133     1.0003  
  282.00000p    1.0179     1.0525     1.0117   998.6079m 
  283.00000p    1.0163     1.0524     1.0101   996.9587m 
  284.00000p    1.0147     1.0524     1.0084   995.3095m 
  285.00000p    1.0130     1.0524     1.0068   993.6603m 
  286.00000p    1.0114     1.0524     1.0051   992.0111m 
  287.00000p    1.0098     1.0524     1.0035   990.3619m 
  288.00000p    1.0081     1.0524     1.0018   988.7126m 
  289.00000p    1.0065     1.0524     1.0002   987.0634m 
  290.00000p    1.0049     1.0524   998.5680m  985.4142m 
  291.00000p    1.0033     1.0524   996.9273m  983.7650m 
  292.00000p    1.0016     1.0523   995.2865m  982.1158m 
  293.00000p    1.0000     1.0523   993.6457m  980.4666m 
  294.00000p  998.3739m    1.0523   992.0050m  978.8174m 
  295.00000p  996.7582m    1.0523   990.3899m  977.2053m 
  296.00000p  995.1494m    1.0523   988.7886m  975.6131m 
  297.00000p  993.5406m    1.0523   987.1872m  974.0209m 
  298.00000p  991.9318m    1.0523   985.5858m  972.4286m 
  299.00000p  990.3230m    1.0523   983.9844m  970.8364m 
  300.00000p  988.7142m    1.0523   982.3831m  969.2442m 
  301.00000p  987.1054m    1.0523   980.7817m  967.6520m 
  302.00000p  985.4966m    1.0523   979.1803m  966.0597m 
  303.00000p  983.8878m    1.0523   977.5789m  964.4675m 
  304.00000p  982.2790m    1.0523   975.9776m  962.8753m 
  305.00000p  980.6702m    1.0523   974.3762m  961.2831m 
  306.00000p  979.0614m    1.0523   972.7748m  959.6908m 
  307.00000p  977.4707m    1.0523   971.1810m  958.1068m 
  308.00000p  975.8904m    1.0523   969.5916m  956.5274m 
  309.00000p  974.3101m    1.0523   968.0021m  954.9481m 
  310.00000p  972.7299m    1.0523   966.4127m  953.3688m 
  311.00000p  971.1496m    1.0523   964.8233m  951.7894m 
  312.00000p  969.5693m    1.0523   963.2338m  950.2101m 
  313.00000p  967.9891m    1.0523   961.6444m  948.6308m 
  314.00000p  966.4088m    1.0523   960.0549m  947.0514m 
  315.00000p  964.8285m    1.0523   958.4655m  945.4721m 
  316.00000p  963.2483m    1.0523   956.8761m  943.8927m 
  317.00000p  961.6680m    1.0523   955.2866m  942.3134m 
  318.00000p  960.0877m    1.0523   953.6972m  940.7341m 
  319.00000p  958.5075m    1.0523   952.1077m  939.1547m 
  320.00000p  956.9272m    1.0522   950.5183m  937.5754m 
  321.00000p  955.3469m    1.0522   948.9289m  935.9960m 
  322.00000p  953.7667m    1.0522   947.3394m  934.4167m 
  323.00000p  952.1864m    1.0522   945.7500m  932.8374m 
  324.00000p  950.6061m    1.0522   944.1605m  931.2580m 
  325.00000p  949.0259m    1.0522   942.5711m  929.6787m 
  326.00000p  947.4456m    1.0522   940.9816m  928.0994m 
  327.00000p  945.8653m    1.0522   939.3922m  926.5200m 
  328.00000p  944.2851m    1.0522   937.8028m  924.9407m 
  329.00000p  942.7048m    1.0522   936.2133m  923.3613m 
  330.00000p  941.1245m    1.0522   934.6239m  921.7820m 
  331.00000p  939.5443m    1.0522   933.0344m  920.2027m 
  332.00000p  937.9640m    1.0522   931.4450m  918.6233m 
  333.00000p  936.3837m    1.0522   929.8556m  917.0440m 
  334.00000p  934.8035m    1.0522   928.2661m  915.4647m 
  335.00000p  933.2232m    1.0522   926.6767m  913.8853m 
  336.00000p  931.6429m    1.0522   925.0872m  912.3060m 
  337.00000p  930.0836m    1.0522   923.5205m  910.7474m 
  338.00000p  928.5295m    1.0522   921.9592m  909.1938m 
  339.00000p  926.9753m    1.0522   920.3980m  907.6402m 
  340.00000p  925.4211m    1.0522   918.8367m  906.0866m 
  341.00000p  923.8669m    1.0522   917.2755m  904.5330m 
  342.00000p  922.3127m    1.0522   915.7142m  902.9794m 
  343.00000p  920.7585m    1.0522   914.1530m  901.4258m 
  344.00000p  919.2044m    1.0522   912.5917m  899.8722m 
  345.00000p  917.6502m    1.0522   911.0304m  898.3186m 
  346.00000p  916.0960m    1.0522   909.4692m  896.7651m 
  347.00000p  914.5418m    1.0522   907.9079m  895.2115m 
  348.00000p  912.9876m    1.0522   906.3467m  893.6579m 
  349.00000p  911.4334m    1.0522   904.7854m  892.1043m 
  350.00000p  909.8793m    1.0522   903.2242m  890.5507m 
  351.00000p  908.3251m    1.0522   901.6629m  888.9971m 
  352.00000p  906.7709m    1.0522   900.1017m  887.4435m 
  353.00000p  905.2167m    1.0521   898.5404m  885.8899m 
  354.00000p  903.6625m    1.0521   896.9792m  884.3363m 
  355.00000p  902.1083m    1.0521   895.4179m  882.7827m 
  356.00000p  900.5541m    1.0521   893.8567m  881.2292m 
  357.00000p  899.0000m    1.0521   892.2954m  879.6756m 
  358.00000p  897.4458m    1.0521   890.7341m  878.1220m 
  359.00000p  895.8916m    1.0521   889.1729m  876.5684m 
  360.00000p  894.3374m    1.0521   887.6116m  875.0148m 
  361.00000p  892.7832m    1.0521   886.0504m  873.4612m 
  362.00000p  891.2290m    1.0521   884.4891m  871.9076m 
  363.00000p  889.6749m    1.0521   882.9279m  870.3540m 
  364.00000p  888.1207m    1.0521   881.3666m  868.8004m 
  365.00000p  886.5665m    1.0521   879.8054m  867.2469m 
  366.00000p  885.0123m    1.0521   878.2441m  865.6933m 
  367.00000p  883.4602m    1.0521   876.6845m  864.1413m 
  368.00000p  881.9456m    1.0521   875.1537m  862.6193m 
  369.00000p  880.4310m    1.0521   873.6230m  861.0973m 
  370.00000p  878.9164m    1.0521   872.0922m  859.5753m 
  371.00000p  877.4018m    1.0521   870.5614m  858.0532m 
  372.00000p  875.8871m    1.0521   869.0307m  856.5312m 
  373.00000p  874.3725m    1.0521   867.4999m  855.0092m 
  374.00000p  872.8579m    1.0521   865.9692m  853.4872m 
  375.00000p  871.3433m    1.0521   864.4384m  851.9652m 
  376.00000p  869.8287m    1.0521   862.9077m  850.4431m 
  377.00000p  868.3141m    1.0521   861.3769m  848.9211m 
  378.00000p  866.7995m    1.0521   859.8462m  847.3991m 
  379.00000p  865.2849m    1.0521   858.3154m  845.8771m 
  380.00000p  863.7703m    1.0521   856.7847m  844.3551m 
  381.00000p  862.2557m    1.0521   855.2539m  842.8330m 
  382.00000p  860.7411m    1.0521   853.7231m  841.3110m 
  383.00000p  859.2264m    1.0521   852.1924m  839.7890m 
  384.00000p  857.7118m    1.0521   850.6616m  838.2670m 
  385.00000p  856.1972m    1.0521   849.1309m  836.7450m 
  386.00000p  854.6826m    1.0521   847.6001m  835.2229m 
  387.00000p  853.1680m    1.0521   846.0694m  833.7009m 
  388.00000p  851.6534m    1.0521   844.5386m  832.1789m 
  389.00000p  850.1388m    1.0521   843.0079m  830.6569m 
  390.00000p  848.6242m    1.0521   841.4771m  829.1349m 
  391.00000p  847.1096m    1.0521   839.9464m  827.6128m 
  392.00000p  845.5950m    1.0521   838.4156m  826.0908m 
  393.00000p  844.0803m    1.0521   836.8849m  824.5688m 
  394.00000p  842.5657m    1.0521   835.3541m  823.0468m 
  395.00000p  841.0511m    1.0521   833.8233m  821.5248m 
  396.00000p  839.5365m    1.0521   832.2926m  820.0027m 
  397.00000p  838.0219m    1.0520   830.7618m  818.4807m 
  398.00000p  836.5073m    1.0520   829.2311m  816.9587m 
  399.00000p  834.9927m    1.0520   827.7003m  815.4367m 
  400.00000p  833.4781m    1.0520   826.1696m  813.9147m 
  401.00000p  831.9635m    1.0520   824.6388m  812.3926m 
  402.00000p  830.4489m    1.0520   823.1081m  810.8706m 
  403.00000p  828.9343m    1.0520   821.5773m  809.3486m 
  404.00000p  827.4196m    1.0520   820.0466m  807.8266m 
  405.00000p  825.9050m    1.0520   818.5158m  806.3046m 
  406.00000p  824.3904m    1.0520   816.9850m  804.7825m 
  407.00000p  822.8758m    1.0520   815.4543m  803.2605m 
  408.00000p  821.3612m    1.0520   813.9235m  801.7385m 
  409.00000p  819.8466m    1.0520   812.3928m  800.2165m 
  410.00000p  818.3320m    1.0520   810.8620m  798.6945m 
  411.00000p  816.8174m    1.0520   809.3313m  797.1724m 
  412.00000p  815.3028m    1.0520   807.8005m  795.6504m 
  413.00000p  813.7882m    1.0520   806.2698m  794.1284m 
  414.00000p  812.2736m    1.0520   804.7390m  792.6064m 
  415.00000p  810.7589m    1.0520   803.2083m  791.0844m 
  416.00000p  809.2443m    1.0520   801.6775m  789.5623m 
  417.00000p  807.7297m    1.0520   800.1468m  788.0403m 
  418.00000p  806.2151m    1.0520   798.6160m  786.5183m 
  419.00000p  804.7005m    1.0520   797.0852m  784.9963m 
  420.00000p  803.2475m    1.0520   795.6034m  783.5220m 
  421.00000p  801.7946m    1.0520   794.1218m  782.0480m 
  422.00000p  800.3418m    1.0520   792.6401m  780.5739m 
  423.00000p  798.8890m    1.0520   791.1585m  779.0998m 
  424.00000p  797.4361m    1.0520   789.6768m  777.6257m 
  425.00000p  795.9833m    1.0520   788.1951m  776.1516m 
  426.00000p  794.5305m    1.0520   786.7135m  774.6776m 
  427.00000p  793.0776m    1.0520   785.2318m  773.2035m 
  428.00000p  791.6248m    1.0520   783.7502m  771.7294m 
  429.00000p  790.1719m    1.0520   782.2685m  770.2553m 
  430.00000p  788.7191m    1.0520   780.7868m  768.7812m 
  431.00000p  787.2663m    1.0520   779.3052m  767.3071m 
  432.00000p  785.8134m    1.0520   777.8235m  765.8331m 
  433.00000p  784.3606m    1.0520   776.3418m  764.3590m 
  434.00000p  782.9078m    1.0520   774.8602m  762.8849m 
  435.00000p  781.4549m    1.0520   773.3785m  761.4108m 
  436.00000p  780.0021m    1.0520   771.8969m  759.9367m 
  437.00000p  778.5492m    1.0520   770.4152m  758.4626m 
  438.00000p  777.0964m    1.0520   768.9335m  756.9886m 
  439.00000p  775.6436m    1.0520   767.4519m  755.5145m 
  440.00000p  774.1907m    1.0520   765.9702m  754.0404m 
  441.00000p  772.7379m    1.0520   764.4886m  752.5663m 
  442.00000p  771.2851m    1.0520   763.0069m  751.0922m 
  443.00000p  769.8322m    1.0520   761.5252m  749.6182m 
  444.00000p  768.3794m    1.0520   760.0436m  748.1441m 
  445.00000p  766.9265m    1.0520   758.5619m  746.6700m 
  446.00000p  765.4737m    1.0520   757.0803m  745.1959m 
  447.00000p  764.0209m    1.0519   755.5986m  743.7218m 
  448.00000p  762.5680m    1.0519   754.1169m  742.2477m 
  449.00000p  761.1152m    1.0519   752.6353m  740.7737m 
  450.00000p  759.6624m    1.0519   751.1536m  739.2996m 
  451.00000p  758.2095m    1.0519   749.6719m  737.8255m 
  452.00000p  756.7567m    1.0519   748.1903m  736.3514m 
  453.00000p  755.3038m    1.0519   746.7086m  734.8773m 
  454.00000p  753.8510m    1.0519   745.2270m  733.4032m 
  455.00000p  752.3982m    1.0519   743.7453m  731.9292m 
  456.00000p  750.9453m    1.0519   742.2636m  730.4551m 
  457.00000p  749.4925m    1.0519   740.7820m  728.9810m 
  458.00000p  748.0397m    1.0519   739.3003m  727.5069m 
  459.00000p  746.5868m    1.0519   737.8187m  726.0328m 
  460.00000p  745.1340m    1.0519   736.3370m  724.5588m 
  461.00000p  743.6811m    1.0519   734.8553m  723.0847m 
  462.00000p  742.2283m    1.0519   733.3737m  721.6106m 
  463.00000p  740.7755m    1.0519   731.8920m  720.1365m 
  464.00000p  739.3226m    1.0519   730.4104m  718.6624m 
  465.00000p  737.8698m    1.0519   728.9287m  717.1883m 
  466.00000p  736.4170m    1.0519   727.4470m  715.7143m 
  467.00000p  734.9641m    1.0519   725.9654m  714.2402m 
  468.00000p  733.5113m    1.0519   724.4837m  712.7661m 
  469.00000p  732.0584m    1.0519   723.0020m  711.2920m 
  470.00000p  730.6056m    1.0519   721.5204m  709.8179m 
  471.00000p  729.1528m    1.0519   720.0387m  708.3438m 
  472.00000p  727.6999m    1.0519   718.5571m  706.8698m 
  473.00000p  726.2471m    1.0519   717.0754m  705.3957m 
  474.00000p  724.7943m    1.0519   715.5937m  703.9216m 
  475.00000p  723.3414m    1.0519   714.1121m  702.4475m 
  476.00000p  721.8886m    1.0519   712.6304m  700.9734m 
  477.00000p  720.4357m    1.0519   711.1488m  699.4994m 
  478.00000p  718.9829m    1.0519   709.6671m  698.0253m 
  479.00000p  717.5301m    1.0519   708.1854m  696.5512m 
  480.00000p  716.0772m    1.0519   706.7038m  695.0771m 
  481.00000p  714.6244m    1.0519   705.2221m  693.6030m 
  482.00000p  713.1716m    1.0519   703.7405m  692.1289m 
  483.00000p  711.7187m    1.0519   702.2588m  690.6549m 
  484.00000p  710.2659m    1.0519   700.7771m  689.1808m 
  485.00000p  708.8130m    1.0519   699.2955m  687.7067m 
  486.00000p  707.4059m    1.0519   697.8380m  686.2572m 
  487.00000p  706.0838m    1.0519   696.4257m  684.8535m 
  488.00000p  704.7617m    1.0519   695.0134m  683.4498m 
  489.00000p  703.4396m    1.0519   693.6012m  682.0462m 
  490.00000p  702.1176m    1.0519   692.1889m  680.6425m 
  491.00000p  700.7955m    1.0519   690.7766m  679.2388m 
  492.00000p  699.4734m    1.0519   689.3643m  677.8351m 
  493.00000p  698.1513m    1.0519   687.9520m  676.4314m 
  494.00000p  696.8293m    1.0519   686.5397m  675.0278m 
  495.00000p  695.5072m    1.0519   685.1274m  673.6241m 
  496.00000p  694.1851m    1.0519   683.7151m  672.2204m 
  497.00000p  692.8630m    1.0519   682.3028m  670.8167m 
  498.00000p  691.5410m    1.0519   680.8905m  669.4130m 
  499.00000p  690.2189m    1.0519   679.4782m  668.0094m 
  500.00000p  688.8968m    1.0519   678.0659m  666.6057m 
  501.00000p  687.5748m    1.0519   676.6536m  665.2020m 
  502.00000p  686.2527m    1.0519   675.2413m  663.7983m 
  503.00000p  684.9306m    1.0519   673.8291m  662.3946m 
  504.00000p  683.6085m    1.0519   672.4168m  660.9910m 
  505.00000p  682.2865m    1.0519   671.0045m  659.5873m 
  506.00000p  680.9644m    1.0519   669.5922m  658.1836m 
  507.00000p  679.6423m    1.0519   668.1799m  656.7799m 
  508.00000p  678.3202m    1.0518   666.7676m  655.3762m 
  509.00000p  676.9982m    1.0518   665.3553m  653.9726m 
  510.00000p  675.6761m    1.0518   663.9430m  652.5689m 
  511.00000p  674.3540m    1.0518   662.5307m  651.1652m 
  512.00000p  673.0319m    1.0518   661.1184m  649.7615m 
  513.00000p  671.7099m    1.0518   659.7061m  648.3578m 
  514.00000p  670.3878m    1.0518   658.2938m  646.9542m 
  515.00000p  669.0657m    1.0518   656.8815m  645.5505m 
  516.00000p  667.7436m    1.0518   655.4692m  644.1468m 
  517.00000p  666.4216m    1.0518   654.0570m  642.7431m 
  518.00000p  665.0995m    1.0518   652.6447m  641.3394m 
  519.00000p  663.7774m    1.0518   651.2324m  639.9358m 
  520.00000p  662.4553m    1.0518   649.8201m  638.5321m 
  521.00000p  661.1333m    1.0518   648.4078m  637.1284m 
  522.00000p  659.8112m    1.0518   646.9955m  635.7247m 
  523.00000p  658.4891m    1.0518   645.5832m  634.3210m 
  524.00000p  657.1670m    1.0518   644.1709m  632.9174m 
  525.00000p  655.8450m    1.0518   642.7586m  631.5137m 
  526.00000p  654.5229m    1.0518   641.3463m  630.1100m 
  527.00000p  653.2008m    1.0518   639.9340m  628.7063m 
  528.00000p  651.8787m    1.0518   638.5217m  627.3026m 
  529.00000p  650.5567m    1.0518   637.1094m  625.8990m 
  530.00000p  649.2346m    1.0518   635.6971m  624.4953m 
  531.00000p  647.9125m    1.0518   634.2849m  623.0916m 
  532.00000p  646.5904m    1.0518   632.8726m  621.6879m 
  533.00000p  645.2684m    1.0518   631.4603m  620.2842m 
  534.00000p  643.9463m    1.0518   630.0480m  618.8806m 
  535.00000p  642.6242m    1.0518   628.6357m  617.4769m 
  536.00000p  641.3021m    1.0518   627.2234m  616.0732m 
  537.00000p  639.9801m    1.0518   625.8111m  614.6695m 
  538.00000p  638.6580m    1.0518   624.3988m  613.2658m 
  539.00000p  637.3359m    1.0518   622.9865m  611.8622m 
  540.00000p  636.0138m    1.0518   621.5742m  610.4585m 
  541.00000p  634.6918m    1.0518   620.1619m  609.0548m 
  542.00000p  633.3697m    1.0518   618.7496m  607.6511m 
  543.00000p  632.0476m    1.0518   617.3373m  606.2474m 
  544.00000p  630.7255m    1.0518   615.9251m  604.8438m 
  545.00000p  629.4035m    1.0518   614.5128m  603.4401m 
  546.00000p  628.0814m    1.0518   613.1005m  602.0364m 
  547.00000p  626.7593m    1.0518   611.6882m  600.6327m 
  548.00000p  625.4372m    1.0518   610.2759m  599.2290m 
  549.00000p  624.1152m    1.0518   608.8636m  597.8254m 
  550.00000p  622.7931m    1.0518   607.4513m  596.4217m 
  551.00000p  621.4710m    1.0518   606.0390m  595.0180m 
  552.00000p  620.1489m    1.0518   604.6267m  593.6143m 
  553.00000p  618.8269m    1.0518   603.2144m  592.2106m 
  554.00000p  617.5048m    1.0518   601.8021m  590.8070m 
  555.00000p  616.1827m    1.0518   600.3898m  589.4033m 
  556.00000p  614.8606m    1.0518   598.9775m  587.9996m 
  557.00000p  613.5386m    1.0518   597.5652m  586.5959m 
  558.00000p  612.2165m    1.0518   596.1530m  585.1922m 
  559.00000p  610.8944m    1.0518   594.7407m  583.7886m 
  560.00000p  609.5723m    1.0518   593.3284m  582.3849m 
  561.00000p  608.2503m    1.0518   591.9161m  580.9812m 
  562.00000p  606.9282m    1.0518   590.5038m  579.5775m 
  563.00000p  605.6061m    1.0518   589.0915m  578.1738m 
  564.00000p  604.2840m    1.0518   587.6792m  576.7702m 
  565.00000p  602.9620m    1.0518   586.2669m  575.3665m 
  566.00000p  601.6399m    1.0518   584.8546m  573.9628m 
  567.00000p  600.3178m    1.0518   583.4423m  572.5591m 
  568.00000p  598.9957m    1.0518   582.0300m  571.1554m 
  569.00000p  597.6737m    1.0518   580.6177m  569.7518m 
  570.00000p  596.3516m    1.0518   579.2054m  568.3481m 
  571.00000p  595.0295m    1.0518   577.7931m  566.9444m 
  572.00000p  593.7074m    1.0517   576.3809m  565.5407m 
  573.00000p  592.3854m    1.0517   574.9686m  564.1370m 
  574.00000p  591.0633m    1.0517   573.5563m  562.7334m 
  575.00000p  589.7412m    1.0517   572.1440m  561.3297m 
  576.00000p  588.4191m    1.0517   570.7317m  559.9260m 
  577.00000p  587.0971m    1.0517   569.3194m  558.5223m 
  578.00000p  585.7750m    1.0517   567.9071m  557.1186m 
  579.00000p  584.4529m    1.0517   566.4948m  555.7150m 
  580.00000p  583.1308m    1.0517   565.0825m  554.3113m 
  581.00000p  581.8088m    1.0517   563.6702m  552.9076m 
  582.00000p  580.4867m    1.0517   562.2579m  551.5039m 
  583.00000p  579.1646m    1.0517   560.8456m  550.1002m 
  584.00000p  577.8425m    1.0517   559.4333m  548.6966m 
  585.00000p  576.5205m    1.0517   558.0210m  547.2929m 
  586.00000p  575.1984m    1.0517   556.6088m  545.8892m 
  587.00000p  573.8763m    1.0517   555.1965m  544.4855m 
  588.00000p  572.5542m    1.0517   553.7842m  543.0818m 
  589.00000p  571.2322m    1.0517   552.3719m  541.6782m 
  590.00000p  569.9101m    1.0517   550.9596m  540.2745m 
  591.00000p  568.5880m    1.0517   549.5473m  538.8708m 
  592.00000p  567.2659m    1.0517   548.1350m  537.4671m 
  593.00000p  565.9439m    1.0517   546.7227m  536.0634m 
  594.00000p  564.6218m    1.0517   545.3104m  534.6598m 
  595.00000p  563.2997m    1.0517   543.8981m  533.2561m 
  596.00000p  561.9776m    1.0517   542.4858m  531.8524m 
  597.00000p  560.6556m    1.0517   541.0735m  530.4487m 
  598.00000p  559.3335m    1.0517   539.6612m  529.0451m 
  599.00000p  558.0114m    1.0517   538.2489m  527.6414m 
  600.00000p  556.6893m    1.0517   536.8367m  526.2377m 
  601.00000p  555.3673m    1.0517   535.4244m  524.8340m 
  602.00000p  554.0452m    1.0517   534.0121m  523.4303m 
  603.00000p  552.7231m    1.0517   532.5998m  522.0267m 
  604.00000p  551.4010m    1.0517   531.1875m  520.6230m 
  605.00000p  550.0790m    1.0517   529.7752m  519.2193m 
  606.00000p  548.7569m    1.0517   528.3629m  517.8156m 
  607.00000p  547.4348m    1.0517   526.9506m  516.4119m 
  608.00000p  546.1127m    1.0517   525.5383m  515.0083m 
  609.00000p  544.7907m    1.0517   524.1260m  513.6046m 
  610.00000p  543.4686m    1.0517   522.7137m  512.2009m 
  611.00000p  542.0736m    1.0517   521.4003m  510.8927m 
  612.00000p  540.6607m    1.0517   520.1110m  509.6078m 
  613.00000p  539.2477m    1.0517   518.8218m  508.3230m 
  614.00000p  537.8348m    1.0517   517.5325m  507.0381m 
  615.00000p  536.4219m    1.0517   516.2433m  505.7533m 
  616.00000p  535.0090m    1.0517   514.9540m  504.4684m 
  617.00000p  533.5961m    1.0517   513.6648m  503.1836m 
  618.00000p  532.1832m    1.0517   512.3756m  501.8987m 
  619.00000p  530.7703m    1.0517   511.0863m  500.6139m 
  620.00000p  529.3574m    1.0517   509.7971m  499.3291m 
  621.00000p  527.9445m    1.0517   508.5078m  498.0442m 
  622.00000p  526.5316m    1.0517   507.2186m  496.7594m 
  623.00000p  525.1187m    1.0517   505.9293m  495.4745m 
  624.00000p  523.7058m    1.0517   504.6401m  494.1897m 
  625.00000p  522.2928m    1.0517   503.3508m  492.9048m 
  626.00000p  520.8799m    1.0517   502.0616m  491.6200m 
  627.00000p  519.4670m    1.0517   500.7723m  490.3351m 
  628.00000p  518.0541m    1.0517   499.4831m  489.0503m 
  629.00000p  516.6412m    1.0517   498.1939m  487.7654m 
  630.00000p  515.2283m    1.0517   496.9046m  486.4806m 
  631.00000p  513.8154m    1.0517   495.6154m  485.1958m 
  632.00000p  512.4025m    1.0517   494.3261m  483.9109m 
  633.00000p  510.9896m    1.0517   493.0369m  482.6261m 
  634.00000p  509.5767m    1.0517   491.7476m  481.3412m 
  635.00000p  508.1638m    1.0517   490.4584m  480.0564m 
  636.00000p  506.7508m    1.0517   489.1691m  478.7715m 
  637.00000p  505.3379m    1.0517   487.8799m  477.4867m 
  638.00000p  503.9250m    1.0517   486.5907m  476.2018m 
  639.00000p  502.5121m    1.0517   485.3014m  474.9170m 
  640.00000p  501.0992m    1.0517   484.0122m  473.6322m 
  641.00000p  499.6863m    1.0517   482.7229m  472.3473m 
  642.00000p  498.2734m    1.0517   481.4337m  471.0625m 
  643.00000p  496.8605m    1.0517   480.1444m  469.7776m 
  644.00000p  495.4476m    1.0517   478.8552m  468.4928m 
  645.00000p  494.0347m    1.0517   477.5659m  467.2079m 
  646.00000p  492.6218m    1.0517   476.2767m  465.9231m 
  647.00000p  491.2089m    1.0517   474.9875m  464.6382m 
  648.00000p  489.7959m    1.0517   473.6982m  463.3534m 
  649.00000p  488.3830m    1.0517   472.4090m  462.0685m 
  650.00000p  486.9701m    1.0517   471.1197m  460.7837m 
  651.00000p  485.5572m    1.0517   469.8305m  459.4989m 
  652.00000p  484.1443m    1.0517   468.5412m  458.2140m 
  653.00000p  482.7314m    1.0517   467.2520m  456.9292m 
  654.00000p  481.3185m    1.0517   465.9627m  455.6443m 
  655.00000p  479.9056m    1.0516   464.6735m  454.3595m 
  656.00000p  478.4927m    1.0516   463.3843m  453.0746m 
  657.00000p  477.0798m    1.0516   462.0950m  451.7898m 
  658.00000p  475.6669m    1.0516   460.8058m  450.5049m 
  659.00000p  474.2539m    1.0516   459.5165m  449.2201m 
  660.00000p  472.8410m    1.0516   458.2273m  447.9353m 
  661.00000p  471.4281m    1.0516   456.9380m  446.6504m 
  662.00000p  470.0152m    1.0516   455.6488m  445.3656m 
  663.00000p  468.6023m    1.0516   454.3595m  444.0807m 
  664.00000p  467.1894m    1.0516   453.0703m  442.7959m 
  665.00000p  465.7765m    1.0516   451.7811m  441.5110m 
  666.00000p  464.3636m    1.0516   450.4918m  440.2262m 
  667.00000p  462.9507m    1.0516   449.2026m  438.9413m 
  668.00000p  461.5378m    1.0516   447.9133m  437.6565m 
  669.00000p  460.1249m    1.0516   446.6241m  436.3716m 
  670.00000p  458.7120m    1.0516   445.3348m  435.0868m 
  671.00000p  457.2990m    1.0516   444.0456m  433.8020m 
  672.00000p  455.8861m    1.0516   442.7563m  432.5171m 
  673.00000p  454.4732m    1.0516   441.4671m  431.2323m 
  674.00000p  453.0603m    1.0516   440.1779m  429.9474m 
  675.00000p  451.6474m    1.0516   438.8886m  428.6626m 
  676.00000p  450.2345m    1.0516   437.5994m  427.3777m 
  677.00000p  448.8216m    1.0516   436.3101m  426.0929m 
  678.00000p  447.4087m    1.0516   435.0209m  424.8080m 
  679.00000p  445.9958m    1.0516   433.7316m  423.5232m 
  680.00000p  444.5829m    1.0516   432.4424m  422.2383m 
  681.00000p  443.1700m    1.0516   431.1531m  420.9535m 
  682.00000p  441.7570m    1.0516   429.8639m  419.6687m 
  683.00000p  440.3441m    1.0516   428.5747m  418.3838m 
  684.00000p  438.9312m    1.0516   427.2854m  417.0990m 
  685.00000p  437.5183m    1.0516   425.9962m  415.8141m 
  686.00000p  436.1054m    1.0516   424.7069m  414.5293m 
  687.00000p  434.6925m    1.0516   423.4177m  413.2444m 
  688.00000p  433.2796m    1.0516   422.1284m  411.9596m 
  689.00000p  431.8667m    1.0516   420.8392m  410.6747m 
  690.00000p  430.4538m    1.0516   419.5499m  409.3899m 
  691.00000p  429.0409m    1.0516   418.2607m  408.1051m 
  692.00000p  427.6280m    1.0516   416.9714m  406.8202m 
  693.00000p  426.2151m    1.0516   415.6822m  405.5354m 
  694.00000p  424.8021m    1.0516   414.3930m  404.2505m 
  695.00000p  423.4472m    1.0516   413.1458m  403.0122m 
  696.00000p  422.1771m    1.0516   411.9602m  401.8421m 
  697.00000p  420.9071m    1.0516   410.7746m  400.6720m 
  698.00000p  419.6370m    1.0516   409.5889m  399.5018m 
  699.00000p  418.3669m    1.0516   408.4033m  398.3317m 
  700.00000p  417.0968m    1.0516   407.2177m  397.1616m 
  701.00000p  415.8268m    1.0516   406.0321m  395.9914m 
  702.00000p  414.5567m    1.0516   404.8465m  394.8213m 
  703.00000p  413.2866m    1.0516   403.6609m  393.6512m 
  704.00000p  412.0165m    1.0516   402.4753m  392.4810m 
  705.00000p  410.7465m    1.0516   401.2897m  391.3109m 
  706.00000p  409.4764m    1.0516   400.1041m  390.1408m 
  707.00000p  408.2063m    1.0516   398.9185m  388.9706m 
  708.00000p  406.9363m    1.0516   397.7329m  387.8005m 
  709.00000p  405.6662m    1.0516   396.5472m  386.6304m 
  710.00000p  404.3961m    1.0516   395.3616m  385.4602m 
  711.00000p  403.1260m    1.0516   394.1760m  384.2901m 
  712.00000p  401.8560m    1.0516   392.9904m  383.1200m 
  713.00000p  400.5859m    1.0516   391.8048m  381.9498m 
  714.00000p  399.3158m    1.0516   390.6192m  380.7797m 
  715.00000p  398.0458m    1.0516   389.4336m  379.6096m 
  716.00000p  396.7757m    1.0516   388.2480m  378.4394m 
  717.00000p  395.5056m    1.0516   387.0624m  377.2693m 
  718.00000p  394.2355m    1.0516   385.8768m  376.0992m 
  719.00000p  392.9655m    1.0516   384.6912m  374.9290m 
  720.00000p  391.6954m    1.0516   383.5056m  373.7589m 
  721.00000p  390.4253m    1.0516   382.3199m  372.5888m 
  722.00000p  389.1552m    1.0516   381.1343m  371.4186m 
  723.00000p  387.8852m    1.0516   379.9487m  370.2485m 
  724.00000p  386.6151m    1.0516   378.7631m  369.0784m 
  725.00000p  385.3450m    1.0516   377.5775m  367.9082m 
  726.00000p  384.0750m    1.0516   376.3919m  366.7381m 
  727.00000p  382.8049m    1.0516   375.2063m  365.5680m 
  728.00000p  381.5348m    1.0516   374.0207m  364.3979m 
  729.00000p  380.2647m    1.0516   372.8351m  363.2277m 
  730.00000p  378.9947m    1.0516   371.6495m  362.0576m 
  731.00000p  377.7246m    1.0516   370.4639m  360.8875m 
  732.00000p  376.4545m    1.0516   369.2782m  359.7173m 
  733.00000p  375.1845m    1.0516   368.0926m  358.5472m 
  734.00000p  373.9144m    1.0516   366.9070m  357.3771m 
  735.00000p  372.6443m    1.0516   365.7214m  356.2069m 
  736.00000p  371.3742m    1.0516   364.5358m  355.0368m 
  737.00000p  370.1042m    1.0515   363.3502m  353.8667m 
  738.00000p  368.8341m    1.0515   362.1646m  352.6965m 
  739.00000p  367.5640m    1.0515   360.9790m  351.5264m 
  740.00000p  366.2939m    1.0515   359.7934m  350.3563m 
  741.00000p  365.0239m    1.0515   358.6078m  349.1861m 
  742.00000p  363.7538m    1.0515   357.4222m  348.0160m 
  743.00000p  362.4837m    1.0515   356.2366m  346.8459m 
  744.00000p  361.2137m    1.0515   355.0509m  345.6757m 
  745.00000p  359.9436m    1.0515   353.8653m  344.5056m 
  746.00000p  358.6735m    1.0515   352.6797m  343.3355m 
  747.00000p  357.4034m    1.0515   351.4941m  342.1653m 
  748.00000p  356.1334m    1.0515   350.3085m  340.9952m 
  749.00000p  354.8633m    1.0515   349.1229m  339.8251m 
  750.00000p  353.5932m    1.0515   347.9373m  338.6549m 
  751.00000p  352.3232m    1.0515   346.7517m  337.4848m 
  752.00000p  351.0531m    1.0515   345.5661m  336.3147m 
  753.00000p  349.7830m    1.0515   344.3805m  335.1445m 
  754.00000p  348.5129m    1.0515   343.1949m  333.9744m 
  755.00000p  347.2429m    1.0515   342.0092m  332.8043m 
  756.00000p  345.9728m    1.0515   340.8236m  331.6341m 
  757.00000p  344.7027m    1.0515   339.6380m  330.4640m 
  758.00000p  343.4326m    1.0515   338.4524m  329.2939m 
  759.00000p  342.1626m    1.0515   337.2668m  328.1237m 
  760.00000p  340.8925m    1.0515   336.0812m  326.9536m 
  761.00000p  339.6224m    1.0515   334.8956m  325.7835m 
  762.00000p  338.3524m    1.0515   333.7100m  324.6134m 
  763.00000p  337.0823m    1.0515   332.5244m  323.4432m 
  764.00000p  335.8122m    1.0515   331.3388m  322.2731m 
  765.00000p  334.5421m    1.0515   330.1532m  321.1030m 
  766.00000p  333.2721m    1.0515   328.9676m  319.9328m 
  767.00000p  332.0020m    1.0515   327.7819m  318.7627m 
  768.00000p  330.7319m    1.0515   326.5963m  317.5926m 
  769.00000p  329.4619m    1.0515   325.4107m  316.4224m 
  770.00000p  328.1918m    1.0515   324.2251m  315.2523m 
  771.00000p  326.9217m    1.0515   323.0395m  314.0822m 
  772.00000p  325.6516m    1.0515   321.8539m  312.9120m 
  773.00000p  324.3816m    1.0515   320.6683m  311.7419m 
  774.00000p  323.1115m    1.0515   319.4827m  310.5718m 
  775.00000p  321.8414m    1.0515   318.2971m  309.4016m 
  776.00000p  320.5713m    1.0515   317.1115m  308.2315m 
  777.00000p  319.3013m    1.0515   315.9259m  307.0614m 
  778.00000p  318.0312m    1.0515   314.7403m  305.8912m 
  779.00000p  316.7611m    1.0515   313.5546m  304.7211m 
  780.00000p  315.6883m    1.0515   312.5013m  303.6835m 
  781.00000p  314.6625m    1.0515   311.4794m  302.6774m 
  782.00000p  313.6366m    1.0515   310.4574m  301.6713m 
  783.00000p  312.6108m    1.0515   309.4355m  300.6652m 
  784.00000p  311.5849m    1.0515   308.4136m  299.6591m 
  785.00000p  310.5590m    1.0515   307.3917m  298.6530m 
  786.00000p  309.5332m    1.0515   306.3698m  297.6469m 
  787.00000p  308.5073m    1.0515   305.3479m  296.6408m 
  788.00000p  307.4814m    1.0515   304.3260m  295.6347m 
  789.00000p  306.4556m    1.0515   303.3041m  294.6286m 
  790.00000p  305.4297m    1.0515   302.2821m  293.6225m 
  791.00000p  304.4039m    1.0515   301.2602m  292.6164m 
  792.00000p  303.3780m    1.0515   300.2383m  291.6103m 
  793.00000p  302.3521m    1.0515   299.2164m  290.6043m 
  794.00000p  301.3263m    1.0515   298.1945m  289.5982m 
  795.00000p  300.3004m    1.0515   297.1726m  288.5921m 
  796.00000p  299.2746m    1.0515   296.1507m  287.5860m 
  797.00000p  298.2487m    1.0515   295.1288m  286.5799m 
  798.00000p  297.2228m    1.0515   294.1068m  285.5738m 
  799.00000p  296.1970m    1.0515   293.0849m  284.5677m 
  800.00000p  295.1711m    1.0515   292.0630m  283.5616m 
  801.00000p  294.1453m    1.0515   291.0411m  282.5555m 
  802.00000p  293.1194m    1.0515   290.0192m  281.5494m 
  803.00000p  292.0935m    1.0515   288.9973m  280.5433m 
  804.00000p  291.0677m    1.0515   287.9754m  279.5372m 
  805.00000p  290.0418m    1.0515   286.9535m  278.5311m 
  806.00000p  289.0159m    1.0515   285.9315m  277.5250m 
  807.00000p  287.9901m    1.0515   284.9096m  276.5189m 
  808.00000p  286.9642m    1.0515   283.8877m  275.5128m 
  809.00000p  285.9384m    1.0515   282.8658m  274.5067m 
  810.00000p  284.9125m    1.0515   281.8439m  273.5006m 
  811.00000p  283.8866m    1.0515   280.8220m  272.4946m 
  812.00000p  282.8608m    1.0515   279.8001m  271.4885m 
  813.00000p  281.8349m    1.0515   278.7782m  270.4824m 
  814.00000p  280.8091m    1.0515   277.7562m  269.4763m 
  815.00000p  279.7832m    1.0515   276.7343m  268.4702m 
  816.00000p  278.7573m    1.0515   275.7124m  267.4641m 
  817.00000p  277.7315m    1.0515   274.6905m  266.4580m 
  818.00000p  276.7056m    1.0515   273.6686m  265.4519m 
  819.00000p  275.6798m    1.0515   272.6467m  264.4458m 
  820.00000p  274.6539m    1.0514   271.6248m  263.4397m 
  821.00000p  273.6280m    1.0514   270.6029m  262.4336m 
  822.00000p  272.6022m    1.0514   269.5809m  261.4275m 
  823.00000p  271.5763m    1.0514   268.5590m  260.4214m 
  824.00000p  270.5504m    1.0514   267.5371m  259.4153m 
  825.00000p  269.5246m    1.0514   266.5152m  258.4092m 
  826.00000p  268.4987m    1.0514   265.4933m  257.4031m 
  827.00000p  267.4729m    1.0514   264.4714m  256.3970m 
  828.00000p  266.4470m    1.0514   263.4495m  255.3909m 
  829.00000p  265.4211m    1.0514   262.4276m  254.3848m 
  830.00000p  264.3953m    1.0514   261.4056m  253.3788m 
  831.00000p  263.3694m    1.0514   260.3837m  252.3727m 
  832.00000p  262.3436m    1.0514   259.3618m  251.3666m 
  833.00000p  261.3177m    1.0514   258.3399m  250.3605m 
  834.00000p  260.2918m    1.0514   257.3180m  249.3544m 
  835.00000p  259.2660m    1.0514   256.2961m  248.3483m 
  836.00000p  258.2401m    1.0514   255.2742m  247.3422m 
  837.00000p  257.2143m    1.0514   254.2522m  246.3361m 
  838.00000p  256.1884m    1.0514   253.2303m  245.3300m 
  839.00000p  255.1625m    1.0514   252.2084m  244.3239m 
  840.00000p  254.1367m    1.0514   251.1865m  243.3178m 
  841.00000p  253.1108m    1.0514   250.1646m  242.3117m 
  842.00000p  252.0849m    1.0514   249.1427m  241.3056m 
  843.00000p  251.0591m    1.0514   248.1208m  240.2995m 
  844.00000p  250.0332m    1.0514   247.0989m  239.2934m 
  845.00000p  249.0074m    1.0514   246.0769m  238.2873m 
  846.00000p  247.9815m    1.0514   245.0550m  237.2812m 
  847.00000p  246.9556m    1.0514   244.0331m  236.2751m 
  848.00000p  245.9298m    1.0514   243.0112m  235.2691m 
  849.00000p  244.9039m    1.0514   241.9893m  234.2630m 
  850.00000p  243.8781m    1.0514   240.9674m  233.2569m 
  851.00000p  242.8522m    1.0514   239.9455m  232.2508m 
  852.00000p  241.8263m    1.0514   238.9236m  231.2447m 
  853.00000p  240.8005m    1.0514   237.9016m  230.2386m 
  854.00000p  239.7746m    1.0514   236.8797m  229.2325m 
  855.00000p  238.7488m    1.0514   235.8578m  228.2264m 
  856.00000p  237.7229m    1.0514   234.8359m  227.2203m 
  857.00000p  236.6970m    1.0514   233.8140m  226.2142m 
  858.00000p  235.6712m    1.0514   232.7921m  225.2081m 
  859.00000p  234.6453m    1.0514   231.7702m  224.2020m 
  860.00000p  233.6194m    1.0514   230.7483m  223.1959m 
  861.00000p  232.5936m    1.0514   229.7263m  222.1898m 
  862.00000p  231.6087m    1.0514   228.7482m  221.2289m 
  863.00000p  230.7832m    1.0514   227.9401m  220.4434m 
  864.00000p  229.9577m    1.0514   227.1321m  219.6579m 
  865.00000p  229.1322m    1.0514   226.3240m  218.8724m 
  866.00000p  228.3067m    1.0514   225.5160m  218.0870m 
  867.00000p  227.4812m    1.0514   224.7079m  217.3015m 
  868.00000p  226.6557m    1.0514   223.8999m  216.5160m 
  869.00000p  225.8302m    1.0514   223.0918m  215.7306m 
  870.00000p  225.0047m    1.0514   222.2838m  214.9451m 
  871.00000p  224.1792m    1.0514   221.4757m  214.1596m 
  872.00000p  223.3537m    1.0514   220.6677m  213.3741m 
  873.00000p  222.5282m    1.0514   219.8596m  212.5887m 
  874.00000p  221.7027m    1.0514   219.0516m  211.8032m 
  875.00000p  220.8772m    1.0514   218.2435m  211.0177m 
  876.00000p  220.0517m    1.0514   217.4355m  210.2323m 
  877.00000p  219.2262m    1.0514   216.6275m  209.4468m 
  878.00000p  218.4007m    1.0514   215.8194m  208.6613m 
  879.00000p  217.5752m    1.0514   215.0114m  207.8758m 
  880.00000p  216.7497m    1.0514   214.2033m  207.0904m 
  881.00000p  215.9242m    1.0514   213.3953m  206.3049m 
  882.00000p  215.0987m    1.0514   212.5872m  205.5194m 
  883.00000p  214.2733m    1.0514   211.7792m  204.7340m 
  884.00000p  213.4478m    1.0514   210.9711m  203.9485m 
  885.00000p  212.6223m    1.0514   210.1631m  203.1630m 
  886.00000p  211.7968m    1.0514   209.3550m  202.3775m 
  887.00000p  210.9713m    1.0514   208.5470m  201.5921m 
  888.00000p  210.1458m    1.0514   207.7389m  200.8066m 
  889.00000p  209.3203m    1.0514   206.9309m  200.0211m 
  890.00000p  208.4948m    1.0514   206.1228m  199.2357m 
  891.00000p  207.6693m    1.0514   205.3148m  198.4502m 
  892.00000p  206.8438m    1.0514   204.5067m  197.6647m 
  893.00000p  206.0183m    1.0514   203.6987m  196.8792m 
  894.00000p  205.1928m    1.0514   202.8906m  196.0938m 
  895.00000p  204.3673m    1.0514   202.0826m  195.3083m 
  896.00000p  203.5418m    1.0514   201.2745m  194.5228m 
  897.00000p  202.7163m    1.0514   200.4665m  193.7374m 
  898.00000p  201.8908m    1.0514   199.6584m  192.9519m 
  899.00000p  201.0653m    1.0514   198.8504m  192.1664m 
  900.00000p  200.2398m    1.0514   198.0423m  191.3809m 
  901.00000p  199.4143m    1.0514   197.2343m  190.5955m 
  902.00000p  198.5888m    1.0514   196.4262m  189.8100m 
  903.00000p  197.7633m    1.0514   195.6182m  189.0245m 
  904.00000p  196.9378m    1.0514   194.8101m  188.2391m 
  905.00000p  196.1123m    1.0514   194.0021m  187.4536m 
  906.00000p  195.2868m    1.0514   193.1940m  186.6681m 
  907.00000p  194.4613m    1.0514   192.3860m  185.8826m 
  908.00000p  193.6358m    1.0514   191.5779m  185.0972m 
  909.00000p  192.8103m    1.0514   190.7699m  184.3117m 
  910.00000p  191.9848m    1.0514   189.9618m  183.5262m 
  911.00000p  191.1593m    1.0513   189.1538m  182.7408m 
  912.00000p  190.3338m    1.0513   188.3457m  181.9553m 
  913.00000p  189.5083m    1.0513   187.5377m  181.1698m 
  914.00000p  188.6828m    1.0513   186.7296m  180.3843m 
  915.00000p  187.8573m    1.0513   185.9216m  179.5989m 
  916.00000p  187.0318m    1.0513   185.1135m  178.8134m 
  917.00000p  186.2063m    1.0513   184.3055m  178.0279m 
  918.00000p  185.3808m    1.0513   183.4974m  177.2425m 
  919.00000p  184.5553m    1.0513   182.6894m  176.4570m 
  920.00000p  183.7298m    1.0513   181.8814m  175.6715m 
  921.00000p  182.9043m    1.0513   181.0733m  174.8860m 
  922.00000p  182.0788m    1.0513   180.2653m  174.1006m 
  923.00000p  181.2533m    1.0513   179.4572m  173.3151m 
  924.00000p  180.4278m    1.0513   178.6492m  172.5296m 
  925.00000p  179.6023m    1.0513   177.8411m  171.7442m 
  926.00000p  178.7768m    1.0513   177.0331m  170.9587m 
  927.00000p  177.9513m    1.0513   176.2250m  170.1732m 
  928.00000p  177.1258m    1.0513   175.4170m  169.3877m 
  929.00000p  176.3003m    1.0513   174.6089m  168.6023m 
  930.00000p  175.4748m    1.0513   173.8009m  167.8168m 
  931.00000p  174.6493m    1.0513   172.9928m  167.0313m 
  932.00000p  173.8238m    1.0513   172.1848m  166.2459m 
  933.00000p  172.9983m    1.0513   171.3767m  165.4604m 
  934.00000p  172.1728m    1.0513   170.5687m  164.6749m 
  935.00000p  171.3473m    1.0513   169.7606m  163.8894m 
  936.00000p  170.5218m    1.0513   168.9526m  163.1040m 
  937.00000p  169.6963m    1.0513   168.1445m  162.3185m 
  938.00000p  168.8708m    1.0513   167.3365m  161.5330m 
  939.00000p  168.0453m    1.0513   166.5284m  160.7476m 
  940.00000p  167.2198m    1.0513   165.7204m  159.9621m 
  941.00000p  166.3943m    1.0513   164.9123m  159.1766m 
  942.00000p  165.5688m    1.0513   164.1043m  158.3911m 
  943.00000p  164.7433m    1.0513   163.2962m  157.6057m 
  944.00000p  163.9178m    1.0513   162.4882m  156.8202m 
  945.00000p  163.0923m    1.0513   161.6801m  156.0347m 
  946.00000p  162.2669m    1.0513   160.8721m  155.2493m 
  947.00000p  161.4414m    1.0513   160.0640m  154.4638m 
  948.00000p  160.6572m    1.0513   159.2926m  153.7136m 
  949.00000p  160.0281m    1.0513   158.6583m  153.0957m 
  950.00000p  159.3989m    1.0513   158.0240m  152.4778m 
  951.00000p  158.7697m    1.0513   157.3896m  151.8599m 
  952.00000p  158.1405m    1.0513   156.7553m  151.2420m 
  953.00000p  157.5113m    1.0513   156.1210m  150.6241m 
  954.00000p  156.8821m    1.0513   155.4867m  150.0062m 
  955.00000p  156.2529m    1.0513   154.8523m  149.3883m 
  956.00000p  155.6237m    1.0513   154.2180m  148.7704m 
  957.00000p  154.9945m    1.0513   153.5837m  148.1525m 
  958.00000p  154.3654m    1.0513   152.9494m  147.5346m 
  959.00000p  153.7362m    1.0513   152.3150m  146.9167m 
  960.00000p  153.1070m    1.0513   151.6807m  146.2988m 
  961.00000p  152.4778m    1.0513   151.0464m  145.6809m 
  962.00000p  151.8486m    1.0513   150.4121m  145.0630m 
  963.00000p  151.2194m    1.0513   149.7778m  144.4451m 
  964.00000p  150.5902m    1.0513   149.1434m  143.8272m 
  965.00000p  149.9610m    1.0513   148.5091m  143.2093m 
  966.00000p  149.3318m    1.0513   147.8748m  142.5914m 
  967.00000p  148.7027m    1.0513   147.2405m  141.9734m 
  968.00000p  148.0735m    1.0513   146.6061m  141.3555m 
  969.00000p  147.4443m    1.0513   145.9718m  140.7376m 
  970.00000p  146.8151m    1.0513   145.3375m  140.1197m 
  971.00000p  146.1859m    1.0513   144.7032m  139.5018m 
  972.00000p  145.5567m    1.0513   144.0688m  138.8839m 
  973.00000p  144.9275m    1.0513   143.4345m  138.2660m 
  974.00000p  144.2983m    1.0513   142.8002m  137.6481m 
  975.00000p  143.6691m    1.0513   142.1659m  137.0302m 
  976.00000p  143.0400m    1.0513   141.5315m  136.4123m 
  977.00000p  142.4108m    1.0513   140.8972m  135.7944m 
  978.00000p  141.7816m    1.0513   140.2629m  135.1765m 
  979.00000p  141.1524m    1.0513   139.6286m  134.5586m 
  980.00000p  140.5232m    1.0513   138.9942m  133.9407m 
  981.00000p  139.8940m    1.0513   138.3599m  133.3228m 
  982.00000p  139.2648m    1.0513   137.7256m  132.7049m 
  983.00000p  138.6356m    1.0513   137.0913m  132.0870m 
  984.00000p  138.0064m    1.0513   136.4570m  131.4691m 
  985.00000p  137.3773m    1.0513   135.8226m  130.8512m 
  986.00000p  136.7481m    1.0513   135.1883m  130.2333m 
  987.00000p  136.1189m    1.0513   134.5540m  129.6154m 
  988.00000p  135.4897m    1.0513   133.9197m  128.9974m 
  989.00000p  134.8605m    1.0513   133.2853m  128.3795m 
  990.00000p  134.2313m    1.0513   132.6510m  127.7616m 
  991.00000p  133.6021m    1.0513   132.0167m  127.1437m 
  992.00000p  132.9729m    1.0513   131.3824m  126.5258m 
  993.00000p  132.3437m    1.0513   130.7480m  125.9079m 
  994.00000p  131.7146m    1.0513   130.1137m  125.2900m 
  995.00000p  131.0854m    1.0513   129.4794m  124.6721m 
  996.00000p  130.4562m    1.0513   128.8451m  124.0542m 
  997.00000p  129.8270m    1.0513   128.2107m  123.4363m 
  998.00000p  128.8351m    1.0508   126.3415m  122.6904m 
  999.00000p  183.2349m    1.0556   129.4475m  122.0972m 
    1.00000n  197.8486m    1.0500   135.3184m  121.9600m 
    1.00100n  199.1440m    1.0449   138.9782m  122.7363m 
    1.00200n  196.7122m    1.0412   141.0468m  124.2669m 
    1.00300n  194.0280m    1.0375   143.0042m  125.8052m 
    1.00400n  186.7826m    1.0350   142.9509m  127.4816m 
    1.00500n  179.5372m    1.0325   142.8977m  129.1579m 
    1.00600n  172.2918m    1.0300   142.8444m  130.8343m 
    1.00700n  165.2702m    1.0273   142.6825m  132.4101m 
    1.00800n  160.1627m    1.0233   141.5918m  133.1257m 
    1.00900n  155.0552m    1.0192   140.5011m  133.8412m 
    1.01000n  149.9477m    1.0151   139.4103m  134.5568m 
    1.01100n  144.8402m    1.0111   138.3196m  135.2723m 
    1.01200n  143.2278m    1.0058   137.6371m  135.3295m 
    1.01300n  142.0067m    1.0004   137.0002m  135.3131m 
    1.01400n  140.7857m  995.0621m  136.3633m  135.2966m 
    1.01500n  139.8689m  991.2828m  136.2574m  135.2759m 
    1.01600n  139.1517m  988.5524m  136.4996m  135.2526m 
    1.01700n  138.4345m  985.8219m  136.7419m  135.2293m 
    1.01800n  137.7173m  983.0914m  136.9842m  135.2059m 
    1.01900n  137.4290m  981.0350m  137.7659m  135.3489m 
    1.02000n  138.3793m  980.9248m  140.1052m  135.9723m 
    1.02100n  139.3296m  980.8147m  142.4445m  136.5957m 
    1.02200n  140.2799m  980.7045m  144.7837m  137.2190m 
    1.02300n  142.8071m  980.1106m  149.4447m  138.9325m 
    1.02400n  146.4929m  979.1613m  155.8116m  141.4468m 
    1.02500n  150.1786m  978.2120m  162.1785m  143.9612m 
    1.02600n  153.8644m  977.2627m  168.5453m  146.4756m 
    1.02700n  158.3022m  975.9612m  175.8097m  149.6518m 
    1.02800n  166.6912m  972.8094m  187.7893m  156.3047m 
    1.02900n  175.0802m  969.6576m  199.7688m  162.9577m 
    1.03000n  183.4692m  966.5059m  211.7484m  169.6106m 
    1.03100n  191.8582m  963.3541m  223.7280m  176.2636m 
    1.03200n  200.2472m  960.2023m  235.7076m  182.9166m 
    1.03300n  212.7203m  956.0094m  252.7620m  194.3126m 
    1.03400n  226.4093m  951.5065m  271.3273m  207.1207m 
    1.03500n  240.0983m  947.0036m  289.8925m  219.9287m 
    1.03600n  253.7872m  942.5007m  308.4578m  232.7368m 
    1.03700n  267.4762m  937.9978m  327.0230m  245.5449m 
    1.03800n  281.1652m  933.4949m  345.5882m  258.3529m 
    1.03900n  297.2484m  929.0410m  370.6826m  278.2918m 
    1.04000n  313.8034m  924.5968m  397.0637m  299.6359m 
    1.04100n  330.3584m  920.1525m  423.4448m  320.9800m 
    1.04200n  346.9134m  915.7083m  449.8258m  342.3241m 
    1.04300n  363.4684m  911.2641m  476.2069m  363.6683m 
    1.04400n  380.0234m  906.8199m  502.5880m  385.0124m 
    1.04500n  396.5784m  902.3757m  528.9690m  406.3565m 
    1.04600n  413.1334m  897.9315m  555.3501m  427.7006m 
    1.04700n  429.6884m  893.4872m  581.7311m  449.0448m 
    1.04800n  450.2160m  891.7659m  604.0845m  473.5792m 
    1.04900n  471.2853m  890.4158m  625.8886m  498.5486m 
    1.05000n  492.3546m  889.0657m  647.6927m  523.5181m 
    1.05100n  513.4239m  887.7157m  669.4968m  548.4875m 
    1.05200n  534.8349m  886.4810m  690.6522m  573.3888m 
    1.05300n  557.0343m  885.5127m  710.3104m  598.1327m 
    1.05400n  580.1094m  885.6187m  726.3016m  620.1404m 
    1.05500n  603.3629m  885.9434m  741.5458m  641.5909m 
    1.05600n  626.6163m  886.2682m  756.7901m  663.0414m 
    1.05700n  649.8698m  886.5929m  772.0343m  684.4919m 
    1.05800n  672.5220m  887.1147m  786.6993m  705.1308m 
    1.05900n  690.8477m  889.0547m  797.1962m  719.9297m 
    1.06000n  709.1734m  890.9947m  807.6932m  734.7287m 
    1.06100n  727.4991m  892.9347m  818.1901m  749.5276m 
    1.06200n  745.8248m  894.8746m  828.6870m  764.3265m 
    1.06300n  764.1505m  896.8146m  839.1839m  779.1255m 
    1.06400n  782.4762m  898.7546m  849.6808m  793.9244m 
    1.06500n  800.8019m  900.6946m  860.1777m  808.7234m 
    1.06600n  815.2691m  903.0290m  868.7906m  820.7600m 
    1.06700n  825.5310m  905.7933m  875.3501m  829.7861m 
    1.06800n  835.7929m  908.5576m  881.9096m  838.8122m 
    1.06900n  846.0547m  911.3219m  888.4691m  847.8383m 
    1.07000n  856.3166m  914.0862m  895.0286m  856.8644m 
    1.07100n  866.5785m  916.8505m  901.5881m  865.8905m 
    1.07200n  876.8404m  919.6147m  908.1476m  874.9166m 
    1.07300n  887.1022m  922.3790m  914.7071m  883.9427m 
    1.07400n  892.7430m  924.9504m  918.6881m  889.4740m 
    1.07500n  897.6709m  927.4920m  922.2714m  894.4662m 
    1.07600n  902.5988m  930.0336m  925.8547m  899.4583m 
    1.07700n  907.5267m  932.5752m  929.4379m  904.4505m 
    1.07800n  912.4546m  935.1168m  933.0212m  909.4427m 
    1.07900n  917.3825m  937.6584m  936.6044m  914.4349m 
    1.08000n  922.3104m  940.2000m  940.1877m  919.4270m 
    1.08100n  927.2383m  942.7416m  943.7709m  924.4192m 
    1.08200n  932.1662m  945.2832m  947.3542m  929.4114m 
    1.08300n  937.0941m  947.8248m  950.9374m  934.4036m 
    1.08400n  942.0220m  950.3663m  954.5207m  939.3957m 
    1.08500n  946.9499m  952.9079m  958.1039m  944.3879m 
    1.08600n  950.2891m  955.0092m  960.6130m  947.8257m 
    1.08700n  952.4464m  956.7829m  962.3230m  950.1071m 
    1.08800n  954.6038m  958.5566m  964.0330m  952.3884m 
    1.08900n  956.7611m  960.3302m  965.7429m  954.6698m 
    1.09000n  958.9184m  962.1039m  967.4529m  956.9511m 
    1.09100n  961.0758m  963.8776m  969.1629m  959.2325m 
    1.09200n  963.2331m  965.6512m  970.8728m  961.5138m 
    1.09300n  965.3904m  967.4249m  972.5828m  963.7952m 
    1.09400n  967.5477m  969.1986m  974.2928m  966.0765m 
    1.09500n  969.7051m  970.9723m  976.0027m  968.3579m 
    1.09600n  971.8624m  972.7459m  977.7127m  970.6392m 
    1.09700n  973.3473m  974.0484m  978.8882m  972.2073m 
    1.09800n  974.4054m  975.0517m  979.7245m  973.3227m 
    1.09900n  975.4635m  976.0551m  980.5607m  974.4381m 
    1.10000n  976.5216m  977.0584m  981.3970m  975.5536m 
    1.10100n  977.5797m  978.0618m  982.2333m  976.6690m 
    1.10200n  978.6378m  979.0652m  983.0695m  977.7844m 
    1.10300n  979.6959m  980.0685m  983.9058m  978.8998m 
    1.10400n  980.7540m  981.0719m  984.7421m  980.0153m 
    1.10500n  981.8121m  982.0752m  985.5783m  981.1307m 
    1.10600n  982.8703m  983.0786m  986.4146m  982.2461m 
    1.10700n  983.9284m  984.0819m  987.2509m  983.3615m 
    1.10800n  984.9865m  985.0853m  988.0871m  984.4770m 
    1.10900n  986.0446m  986.0886m  988.9234m  985.5924m 
    1.11000n  987.1027m  987.0920m  989.7597m  986.7078m 
    1.11100n  987.8791m  987.8441m  990.3785m  987.5257m 
    1.11200n  988.3124m  988.2900m  990.7323m  987.9810m 
    1.11300n  988.7456m  988.7359m  991.0861m  988.4364m 
    1.11400n  989.1788m  989.1819m  991.4400m  988.8917m 
    1.11500n  989.6121m  989.6278m  991.7938m  989.3471m 
    1.11600n  990.0453m  990.0738m  992.1477m  989.8024m 
    1.11700n  990.4786m  990.5197m  992.5015m  990.2578m 
    1.11800n  990.9118m  990.9657m  992.8554m  990.7132m 
    1.11900n  991.3451m  991.4116m  993.2092m  991.1685m 
    1.12000n  991.7783m  991.8576m  993.5631m  991.6239m 
    1.12100n  992.2116m  992.3035m  993.9169m  992.0792m 
    1.12200n  992.6448m  992.7494m  994.2708m  992.5346m 
    1.12300n  993.0781m  993.1954m  994.6246m  992.9899m 
    1.12400n  993.5113m  993.6413m  994.9785m  993.4453m 
    1.12500n  993.9446m  994.0873m  995.3323m  993.9006m 
    1.12600n  994.3778m  994.5332m  995.6862m  994.3560m 
    1.12700n  994.8111m  994.9792m  996.0400m  994.8113m 
    1.12800n  995.2443m  995.4251m  996.3939m  995.2667m 
    1.12900n  995.4373m  995.6224m  996.5471m  995.4693m 
    1.13000n  995.5736m  995.7609m  996.6530m  995.6122m 
    1.13100n  995.7099m  995.8995m  996.7589m  995.7551m 
    1.13200n  995.8463m  996.0380m  996.8648m  995.8980m 
    1.13300n  995.9826m  996.1765m  996.9707m  996.0409m 
    1.13400n  996.1189m  996.3151m  997.0766m  996.1838m 
    1.13500n  996.2552m  996.4536m  997.1825m  996.3267m 
    1.13600n  996.3915m  996.5922m  997.2884m  996.4696m 
    1.13700n  996.5278m  996.7307m  997.3943m  996.6125m 
    1.13800n  996.6641m  996.8693m  997.5002m  996.7554m 
    1.13900n  996.8004m  997.0078m  997.6061m  996.8983m 
    1.14000n  996.9367m  997.1464m  997.7120m  997.0412m 
    1.14100n  997.0730m  997.2849m  997.8178m  997.1841m 
    1.14200n  997.2093m  997.4234m  997.9237m  997.3270m 
    1.14300n  997.3456m  997.5620m  998.0296m  997.4699m 
    1.14400n  997.4819m  997.7005m  998.1355m  997.6128m 
    1.14500n  997.6182m  997.8391m  998.2414m  997.7557m 
    1.14600n  997.7545m  997.9776m  998.3473m  997.8986m 
    1.14700n  997.8908m  998.1162m  998.4532m  998.0415m 
    1.14800n  998.0272m  998.2547m  998.5591m  998.1844m 
    1.14900n  998.1635m  998.3933m  998.6650m  998.3273m 
    1.15000n  998.2998m  998.5318m  998.7709m  998.4703m 
    1.15100n  998.4361m  998.6703m  998.8768m  998.6132m 
    1.15200n  998.5724m  998.8089m  998.9827m  998.7561m 
    1.15300n  998.7078m  998.9465m  999.0879m  998.8980m 
    1.15400n  998.7378m  998.9762m  999.1129m  998.9266m 
    1.15500n  998.7678m  999.0058m  999.1380m  998.9552m 
    1.15600n  998.7978m  999.0355m  999.1630m  998.9839m 
    1.15700n  998.8279m  999.0652m  999.1880m  999.0125m 
    1.15800n  998.8579m  999.0948m  999.2131m  999.0411m 
    1.15900n  998.8879m  999.1245m  999.2381m  999.0697m 
    1.16000n  998.9179m  999.1541m  999.2631m  999.0984m 
    1.16100n  998.9479m  999.1838m  999.2882m  999.1270m 
    1.16200n  998.9779m  999.2135m  999.3132m  999.1556m 
    1.16300n  999.0080m  999.2431m  999.3382m  999.1842m 
    1.16400n  999.0380m  999.2728m  999.3633m  999.2128m 
    1.16500n  999.0680m  999.3024m  999.3883m  999.2415m 
    1.16600n  999.0980m  999.3321m  999.4133m  999.2701m 
    1.16700n  999.1280m  999.3617m  999.4384m  999.2987m 
    1.16800n  999.1580m  999.3914m  999.4634m  999.3273m 
    1.16900n  999.1881m  999.4211m  999.4884m  999.3560m 
    1.17000n  999.2181m  999.4507m  999.5135m  999.3846m 
    1.17100n  999.2481m  999.4804m  999.5385m  999.4132m 
    1.17200n  999.2781m  999.5100m  999.5635m  999.4418m 
    1.17300n  999.3081m  999.5397m  999.5886m  999.4704m 
    1.17400n  999.3381m  999.5694m  999.6136m  999.4991m 
    1.17500n  999.3682m  999.5990m  999.6386m  999.5277m 
    1.17600n  999.3982m  999.6287m  999.6637m  999.5563m 
    1.17700n  999.4282m  999.6583m  999.6887m  999.5849m 
    1.17800n  999.4582m  999.6880m  999.7137m  999.6135m 
    1.17900n  999.4882m  999.7177m  999.7388m  999.6422m 
    1.18000n  999.5183m  999.7473m  999.7638m  999.6708m 
    1.18100n  999.5483m  999.7770m  999.7888m  999.6994m 
    1.18200n  999.5783m  999.8066m  999.8139m  999.7280m 
    1.18300n  999.6083m  999.8363m  999.8389m  999.7567m 
    1.18400n  999.6272m  999.8541m  999.8536m  999.7749m 
    1.18500n  999.6326m  999.8574m  999.8556m  999.7805m 
    1.18600n  999.6380m  999.8607m  999.8576m  999.7860m 
    1.18700n  999.6434m  999.8640m  999.8596m  999.7916m 
    1.18800n  999.6487m  999.8672m  999.8616m  999.7972m 
    1.18900n  999.6541m  999.8705m  999.8636m  999.8027m 
    1.19000n  999.6595m  999.8738m  999.8656m  999.8083m 
    1.19100n  999.6649m  999.8771m  999.8676m  999.8139m 
    1.19200n  999.6703m  999.8804m  999.8696m  999.8194m 
    1.19300n  999.6756m  999.8837m  999.8716m  999.8250m 
    1.19400n  999.6810m  999.8870m  999.8736m  999.8306m 
    1.19500n  999.6864m  999.8903m  999.8756m  999.8361m 
    1.19600n  999.6918m  999.8936m  999.8776m  999.8417m 
    1.19700n  999.6972m  999.8969m  999.8796m  999.8473m 
    1.19800n  999.7025m  999.9002m  999.8816m  999.8528m 
    1.19900n  999.7079m  999.9035m  999.8836m  999.8584m 
    1.20000n  999.7133m  999.9068m  999.8856m  999.8640m 
    1.20100n  999.7187m  999.9101m  999.8876m  999.8695m 
    1.20200n  999.7241m  999.9133m  999.8896m  999.8751m 
    1.20300n  999.7295m  999.9166m  999.8916m  999.8807m 
    1.20400n  999.7348m  999.9199m  999.8936m  999.8862m 
    1.20500n  999.7402m  999.9232m  999.8956m  999.8918m 
    1.20600n  999.7456m  999.9265m  999.8976m  999.8974m 
    1.20700n  999.7510m  999.9298m  999.8996m  999.9029m 
    1.20800n  999.7564m  999.9331m  999.9016m  999.9085m 
    1.20900n  999.7617m  999.9364m  999.9036m  999.9141m 
    1.21000n  999.7671m  999.9397m  999.9056m  999.9196m 
    1.21100n  999.7725m  999.9430m  999.9076m  999.9252m 
    1.21200n  999.7779m  999.9463m  999.9096m  999.9308m 
    1.21300n  999.7833m  999.9496m  999.9116m  999.9363m 
    1.21400n  999.7886m  999.9529m  999.9136m  999.9419m 
    1.21500n  999.7940m  999.9562m  999.9156m  999.9475m 
    1.21600n  999.7994m  999.9594m  999.9176m  999.9530m 
    1.21700n  999.8048m  999.9627m  999.9196m  999.9586m 
    1.21800n    1.0001     1.0002     1.0004     1.0002  
    1.21900n    1.0011     1.0012     1.0019     1.0011  
    1.22000n    1.0022     1.0022     1.0035     1.0019  
    1.22100n    1.0032     1.0032     1.0050     1.0028  
    1.22200n    1.0042     1.0042     1.0066     1.0037  
    1.22300n    1.0052     1.0052     1.0081     1.0045  
    1.22400n    1.0063     1.0062     1.0097     1.0054  
    1.22500n    1.0073     1.0072     1.0108     1.0064  
    1.22600n    1.0084     1.0082     1.0120     1.0073  
    1.22700n    1.0094     1.0092     1.0130     1.0083  
    1.22800n    1.0104     1.0102     1.0140     1.0094  
    1.22900n    1.0115     1.0112     1.0150     1.0104  
    1.23000n    1.0125     1.0122     1.0160     1.0114  
    1.23100n    1.0136     1.0132     1.0170     1.0125  
    1.23200n    1.0146     1.0142     1.0179     1.0135  
    1.23300n    1.0156     1.0152     1.0189     1.0145  
    1.23400n    1.0166     1.0162     1.0198     1.0155  
    1.23500n    1.0173     1.0171     1.0204     1.0157  
    1.23600n    1.0179     1.0181     1.0209     1.0160  
    1.23700n    1.0185     1.0190     1.0214     1.0163  
    1.23800n    1.0191     1.0199     1.0220     1.0166  
    1.23900n    1.0198     1.0208     1.0225     1.0168  
    1.24000n    1.0204     1.0217     1.0230     1.0171  
    1.24100n    1.0210     1.0226     1.0235     1.0174  
    1.24200n    1.0217     1.0235     1.0241     1.0177  
    1.24300n    1.0223     1.0244     1.0246     1.0179  
    1.24400n    1.0229     1.0254     1.0251     1.0182  
    1.24500n    1.0235     1.0263     1.0256     1.0185  
    1.24600n    1.0242     1.0272     1.0262     1.0188  
    1.24700n    1.0248     1.0281     1.0267     1.0190  
    1.24800n    1.0254     1.0290     1.0272     1.0193  
    1.24900n    1.0261     1.0299     1.0277     1.0196  
    1.25000n    1.0267     1.0308     1.0283     1.0198  
    1.25100n    1.0273     1.0318     1.0288     1.0201  
    1.25200n    1.0279     1.0327     1.0293     1.0204  
    1.25300n    1.0286     1.0336     1.0299     1.0207  
    1.25400n    1.0292     1.0345     1.0304     1.0209  
    1.25500n    1.0298     1.0354     1.0309     1.0212  
    1.25600n    1.0300     1.0364     1.0309     1.0207  
    1.25700n    1.0300     1.0373     1.0307     1.0200  
    1.25800n    1.0299     1.0383     1.0306     1.0192  
    1.25900n    1.0299     1.0392     1.0304     1.0184  
    1.26000n    1.0299     1.0402     1.0302     1.0177  
    1.26100n    1.0299     1.0412     1.0300     1.0169  
    1.26200n    1.0299     1.0421     1.0298     1.0161  
    1.26300n    1.0298     1.0431     1.0296     1.0154  
    1.26400n    1.0298     1.0440     1.0295     1.0146  
    1.26500n    1.0298     1.0450     1.0293     1.0138  
    1.26600n    1.0298     1.0460     1.0291     1.0131  
    1.26700n    1.0298     1.0469     1.0289     1.0123  
    1.26800n    1.0293     1.0476     1.0282     1.0113  
    1.26900n    1.0279     1.0478     1.0260     1.0098  
    1.27000n    1.0264     1.0479     1.0238     1.0083  
    1.27100n    1.0250     1.0480     1.0216     1.0068  
    1.27200n    1.0235     1.0481     1.0195     1.0053  
    1.27300n    1.0221     1.0482     1.0174     1.0038  
    1.27400n    1.0205     1.0483     1.0154     1.0023  
    1.27500n    1.0189     1.0483     1.0136     1.0006  
    1.27600n    1.0172     1.0483     1.0119   998.9109m 
    1.27700n    1.0155     1.0483     1.0102   997.2159m 
    1.27800n    1.0138     1.0483     1.0084   995.5208m 
    1.27900n    1.0121     1.0483     1.0067   993.8258m 
    1.28000n    1.0105     1.0484     1.0050   992.1397m 
    1.28100n    1.0088     1.0484     1.0034   990.4751m 
    1.28200n    1.0071     1.0484     1.0017   988.8105m 
    1.28300n    1.0055     1.0484     1.0000   987.1459m 
    1.28400n    1.0038     1.0484   998.3878m  985.4813m 
    1.28500n    1.0021     1.0484   996.7312m  983.8167m 
    1.28600n    1.0005     1.0484   995.0746m  982.1521m 
    1.28700n  998.8018m    1.0484   993.4180m  980.4875m 
    1.28800n  997.1361m    1.0484   991.7615m  978.8228m 
    1.28900n  995.4704m    1.0484   990.1049m  977.1582m 
    1.29000n  993.8047m    1.0484   988.4483m  975.4936m 
    1.29100n  992.1390m    1.0484   986.7917m  973.8290m 
    1.29200n  990.4733m    1.0484   985.1351m  972.1644m 
    1.29300n  988.8076m    1.0484   983.4785m  970.4998m 
    1.29400n  987.1419m    1.0484   981.8220m  968.8352m 
    1.29500n  985.4762m    1.0484   980.1654m  967.1706m 
    1.29600n  983.8105m    1.0484   978.5088m  965.5060m 
    1.29700n  982.1517m    1.0484   976.8540m  963.8495m 
    1.29800n  980.5200m    1.0484   975.2063m  962.2253m 
    1.29900n  978.8884m    1.0484   973.5586m  960.6011m 
    1.30000n  977.2568m    1.0484   971.9109m  958.9769m 
    1.30100n  975.6251m    1.0484   970.2632m  957.3527m 
    1.30200n  973.9935m    1.0484   968.6155m  955.7285m 
    1.30300n  972.3619m    1.0484   966.9678m  954.1042m 
    1.30400n  970.7302m    1.0484   965.3200m  952.4800m 
    1.30500n  969.0986m    1.0484   963.6723m  950.8558m 
    1.30600n  967.4670m    1.0484   962.0246m  949.2316m 
    1.30700n  965.8353m    1.0484   960.3769m  947.6074m 
    1.30800n  964.2037m    1.0484   958.7292m  945.9832m 
    1.30900n  962.5721m    1.0484   957.0815m  944.3590m 
    1.31000n  960.9404m    1.0484   955.4338m  942.7348m 
    1.31100n  959.3224m    1.0484   953.8074m  941.1193m 
    1.31200n  957.7113m    1.0484   952.1919m  939.5084m 
    1.31300n  956.1003m    1.0484   950.5765m  937.8974m 
    1.31400n  954.4892m    1.0484   948.9611m  936.2864m 
    1.31500n  952.8782m    1.0484   947.3457m  934.6755m 
    1.31600n  951.2671m    1.0484   945.7302m  933.0645m 
    1.31700n  949.6560m    1.0484   944.1148m  931.4535m 
    1.31800n  948.0450m    1.0484   942.4994m  929.8426m 
[...]
    3.28200n   -5.5045u 
    3.28300n   -5.4557u 
    3.28400n   -5.4068u 
    3.28500n   -5.3580u 
    3.28600n   -5.4258u 
    3.28700n   -5.5051u 
    3.28800n   -5.5845u 
    3.28900n   -5.6639u 
    3.29000n   -5.7433u 
    3.29100n   -5.8227u 
    3.29200n   -5.9021u 
    3.29300n   -5.9815u 
    3.29400n   -6.0609u 
    3.29500n   -6.1403u 
    3.29600n   -6.2197u 
    3.29700n   -6.2799u 
    3.29800n   -6.2114u 
    3.29900n   -6.1429u 
    3.30000n   -6.0744u 
    3.30100n   -6.0060u 
    3.30200n   -5.9375u 
    3.30300n   -5.8690u 
    3.30400n   -5.8005u 
    3.30500n   -5.7320u 
    3.30600n   -5.6635u 
    3.30700n   -5.5951u 
    3.30800n   -5.5266u 
    3.30900n   -5.4581u 
    3.31000n   -5.3896u 
    3.31100n   -5.3211u 
    3.31200n   -5.2526u 
    3.31300n   -5.1842u 
    3.31400n   -5.1157u 
    3.31500n   -5.0472u 
    3.31600n   -4.9787u 
    3.31700n   -4.9102u 
    3.31800n   -4.8418u 
    3.31900n   -4.7733u 
    3.32000n   -4.7048u 
    3.32100n   -4.6363u 
    3.32200n   -4.5678u 
    3.32300n   -4.4993u 
    3.32400n   -4.4309u 
    3.32500n   -4.3624u 
    3.32600n   -4.3242u 
    3.32700n   -4.3389u 
    3.32800n   -4.3535u 
    3.32900n   -4.3682u 
    3.33000n   -4.3829u 
    3.33100n   -4.3975u 
    3.33200n   -4.4122u 
    3.33300n   -4.4269u 
    3.33400n   -4.4415u 
    3.33500n   -4.4562u 
    3.33600n   -4.4709u 
    3.33700n   -4.4855u 
    3.33800n   -4.5002u 
    3.33900n   -4.5149u 
    3.34000n   -4.5295u 
    3.34100n   -4.5442u 
    3.34200n   -4.5589u 
    3.34300n   -4.5735u 
    3.34400n   -4.5882u 
    3.34500n   -4.6029u 
    3.34600n   -4.6175u 
    3.34700n   -4.6322u 
    3.34800n   -4.6469u 
    3.34900n   -4.6615u 
    3.35000n   -4.6762u 
    3.35100n   -4.6909u 
    3.35200n   -4.7056u 
    3.35300n   -4.7202u 
    3.35400n   -4.7349u 
    3.35500n   -4.7496u 
    3.35600n   -4.7642u 
    3.35700n   -4.7444u 
    3.35800n   -4.7066u 
    3.35900n   -4.6687u 
    3.36000n   -4.6309u 
    3.36100n   -4.5930u 
    3.36200n   -4.5552u 
    3.36300n   -4.5173u 
    3.36400n   -4.4795u 
    3.36500n   -4.4417u 
    3.36600n   -4.4038u 
    3.36700n   -4.3660u 
    3.36800n   -4.3281u 
    3.36900n   -4.2903u 
    3.37000n   -4.2525u 
    3.37100n   -4.2146u 
    3.37200n   -4.1768u 
    3.37300n   -4.1389u 
    3.37400n   -4.1011u 
    3.37500n   -4.0632u 
    3.37600n   -4.0254u 
    3.37700n   -3.9876u 
    3.37800n   -3.9497u 
    3.37900n   -3.9119u 
    3.38000n   -3.8740u 
    3.38100n   -3.8362u 
    3.38200n   -3.7983u 
    3.38300n   -3.7605u 
    3.38400n   -3.7227u 
    3.38500n   -3.6848u 
    3.38600n   -3.6470u 
    3.38700n   -3.6091u 
    3.38800n   -3.5713u 
    3.38900n   -3.5335u 
    3.39000n   -3.4956u 
    3.39100n   -3.4578u 
    3.39200n   -3.4199u 
    3.39300n   -3.3821u 
    3.39400n   -3.3442u 
    3.39500n   -3.3064u 
    3.39600n   -3.2686u 
    3.39700n   -3.2307u 
    3.39800n   -3.1929u 
    3.39900n   -3.1550u 
    3.40000n   -3.1172u 
    3.40100n   -3.0794u 
    3.40200n   -3.0415u 
    3.40300n   -3.0037u 
    3.40400n   -2.9658u 
    3.40500n   -2.9280u 
    3.40600n   -2.8901u 
    3.40700n   -2.8592u 
    3.40800n   -2.8670u 
    3.40900n   -2.8747u 
    3.41000n   -2.8825u 
    3.41100n   -2.8903u 
    3.41200n   -2.8981u 
    3.41300n   -2.9059u 
    3.41400n   -2.9137u 
    3.41500n   -2.9215u 
    3.41600n   -2.9292u 
    3.41700n   -2.9370u 
    3.41800n   -2.9448u 
    3.41900n   -2.9526u 
    3.42000n   -2.9604u 
    3.42100n   -2.9682u 
    3.42200n   -2.9759u 
    3.42300n   -2.9837u 
    3.42400n   -2.9915u 
    3.42500n   -2.9993u 
    3.42600n   -3.0071u 
    3.42700n   -3.0149u 
    3.42800n   -3.0226u 
    3.42900n   -3.0304u 
    3.43000n   -3.0382u 
    3.43100n   -3.0460u 
    3.43200n   -3.0538u 
    3.43300n   -3.0616u 
    3.43400n   -3.0694u 
    3.43500n   -3.0771u 
    3.43600n   -3.0849u 
    3.43700n   -3.0927u 
    3.43800n   -3.1005u 
    3.43900n   -3.1083u 
    3.44000n   -3.1161u 
    3.44100n   -3.1238u 
    3.44200n   -3.1316u 
    3.44300n   -3.1394u 
    3.44400n   -3.1472u 
    3.44500n   -3.1550u 
    3.44600n   -3.1628u 
    3.44700n   -3.1705u 
    3.44800n   -3.1783u 
    3.44900n   -3.1861u 
    3.45000n   -3.1939u 
    3.45100n   -3.2017u 
    3.45200n   -3.2095u 
    3.45300n   -3.2173u 
    3.45400n   -3.2250u 
    3.45500n   -3.2328u 
    3.45600n   -3.2406u 
    3.45700n   -3.2484u 
    3.45800n   -3.2562u 
    3.45900n   -3.2640u 
    3.46000n   -3.2717u 
    3.46100n   -3.2795u 
    3.46200n   -3.2873u 
    3.46300n   -3.2951u 
    3.46400n   -3.3029u 
    3.46500n   -3.3107u 
    3.46600n   -3.3185u 
    3.46700n   -3.3262u 
    3.46800n   -3.3340u 
    3.46900n   -3.3349u 
    3.47000n   -3.3122u 
    3.47100n   -3.2895u 
    3.47200n   -3.2668u 
    3.47300n   -3.2441u 
    3.47400n   -3.2214u 
    3.47500n   -3.1986u 
    3.47600n   -3.1759u 
    3.47700n   -3.1532u 
    3.47800n   -3.1305u 
    3.47900n   -3.1078u 
    3.48000n   -3.0851u 
    3.48100n   -3.0623u 
    3.48200n   -3.0396u 
    3.48300n   -3.0169u 
    3.48400n   -2.9942u 
    3.48500n   -2.9715u 
    3.48600n   -2.9487u 
    3.48700n   -2.9260u 
    3.48800n   -2.9033u 
    3.48900n   -2.8806u 
    3.49000n   -2.8579u 
    3.49100n   -2.8352u 
    3.49200n   -2.8124u 
    3.49300n   -2.7897u 
    3.49400n   -2.7670u 
    3.49500n   -2.7443u 
    3.49600n   -2.7216u 
    3.49700n   -2.6989u 
    3.49800n   -2.6761u 
    3.49900n   -2.6534u 
    3.50000n   -2.6307u 
    3.50100n   -2.6080u 
    3.50200n   -2.5853u 
    3.50300n   -2.5626u 
    3.50400n   -2.5398u 
    3.50500n   -2.5171u 
    3.50600n   -2.4944u 
    3.50700n   -2.4717u 
    3.50800n   -2.4490u 
    3.50900n   -2.4263u 
    3.51000n   -2.4035u 
    3.51100n   -2.3808u 
    3.51200n   -2.3581u 
    3.51300n   -2.3354u 
    3.51400n   -2.3127u 
    3.51500n   -2.2899u 
    3.51600n   -2.2672u 
    3.51700n   -2.2445u 
    3.51800n   -2.2218u 
    3.51900n   -2.1991u 
    3.52000n   -2.1764u 
    3.52100n   -2.1536u 
    3.52200n   -2.1309u 
    3.52300n   -2.1082u 
    3.52400n   -2.0855u 
    3.52500n   -2.0628u 
    3.52600n   -2.0401u 
    3.52700n   -2.0173u 
    3.52800n   -1.9946u 
    3.52900n   -1.9719u 
    3.53000n   -1.9492u 
    3.53100n   -1.9265u 
    3.53200n   -1.9038u 
    3.53300n   -1.8810u 
    3.53400n   -1.8583u 
    3.53500n   -1.8356u 
    3.53600n   -1.8129u 
    3.53700n   -1.8098u 
    3.53800n   -1.8207u 
    3.53900n   -1.8317u 
    3.54000n   -1.8426u 
    3.54100n   -1.8536u 
    3.54200n   -1.8645u 
    3.54300n   -1.8754u 
    3.54400n   -1.8864u 
    3.54500n   -1.8973u 
    3.54600n   -1.9083u 
    3.54700n   -1.9192u 
    3.54800n   -1.9301u 
    3.54900n   -1.9411u 
    3.55000n   -1.9520u 
    3.55100n   -1.9629u 
    3.55200n   -1.9739u 
    3.55300n   -1.9848u 
    3.55400n   -1.9958u 
    3.55500n   -2.0067u 
    3.55600n   -2.0176u 
    3.55700n   -2.0286u 
    3.55800n   -2.0395u 
    3.55900n   -2.0505u 
    3.56000n   -2.0614u 
    3.56100n   -2.0723u 
    3.56200n   -2.0833u 
    3.56300n   -2.0942u 
    3.56400n   -2.1052u 
    3.56500n   -2.1161u 
    3.56600n   -2.1270u 
    3.56700n   -2.1380u 
    3.56800n   -2.1489u 
    3.56900n   -2.1599u 
    3.57000n   -2.1708u 
    3.57100n   -2.1817u 
    3.57200n   -2.1927u 
    3.57300n   -2.2036u 
    3.57400n   -2.2146u 
    3.57500n   -2.2255u 
    3.57600n   -2.2364u 
    3.57700n   -2.2474u 
    3.57800n   -2.2583u 
    3.57900n   -2.2693u 
    3.58000n   -2.2802u 
    3.58100n   -2.2911u 
    3.58200n   -2.3021u 
    3.58300n   -2.3130u 
    3.58400n   -2.3240u 
    3.58500n   -2.3349u 
    3.58600n   -2.3458u 
    3.58700n   -2.3568u 
    3.58800n   -2.3677u 
    3.58900n   -2.3787u 
    3.59000n   -2.3896u 
    3.59100n   -2.4005u 
    3.59200n   -2.4115u 
    3.59300n   -2.4224u 
    3.59400n   -2.4334u 
    3.59500n   -2.4443u 
    3.59600n   -2.4552u 
    3.59700n   -2.4662u 
    3.59800n   -2.4771u 
    3.59900n   -2.4881u 
    3.60000n   -2.4990u 
    3.60100n   -2.5099u 
    3.60200n   -2.5209u 
    3.60300n   -2.5318u 
    3.60400n   -2.5428u 
    3.60500n   -2.5537u 
    3.60600n   -2.5646u 
    3.60700n   -2.5756u 
    3.60800n   -2.5865u 
    3.60900n   -2.5974u 
    3.61000n   -2.6084u 
    3.61100n   -2.6193u 
    3.61200n   -2.6303u 
    3.61300n   -2.6237u 
    3.61400n   -2.6085u 
    3.61500n   -2.5934u 
    3.61600n   -2.5783u 
    3.61700n   -2.5631u 
    3.61800n   -2.5480u 
    3.61900n   -2.5328u 
    3.62000n   -2.5177u 
    3.62100n   -2.5026u 
    3.62200n   -2.4874u 
    3.62300n   -2.4723u 
    3.62400n   -2.4572u 
    3.62500n   -2.4420u 
    3.62600n   -2.4269u 
    3.62700n   -2.4118u 
    3.62800n   -2.3966u 
    3.62900n   -2.3815u 
    3.63000n   -2.3664u 
    3.63100n   -2.3512u 
    3.63200n   -2.3361u 
    3.63300n   -2.3209u 
    3.63400n   -2.3058u 
    3.63500n   -2.2907u 
    3.63600n   -2.2755u 
    3.63700n   -2.2604u 
    3.63800n   -2.2453u 
    3.63900n   -2.2301u 
    3.64000n   -2.2150u 
    3.64100n   -2.1999u 
    3.64200n   -2.1847u 
    3.64300n   -2.1696u 
    3.64400n   -2.1545u 
    3.64500n   -2.1393u 
    3.64600n   -2.1242u 
    3.64700n   -2.1090u 
    3.64800n   -2.0939u 
    3.64900n   -2.0788u 
    3.65000n   -2.0636u 
    3.65100n   -2.0485u 
    3.65200n   -2.0334u 
    3.65300n   -2.0182u 
    3.65400n   -2.0031u 
    3.65500n   -1.9880u 
    3.65600n   -1.9728u 
    3.65700n   -1.9577u 
    3.65800n   -1.9426u 
    3.65900n   -1.9274u 
    3.66000n   -1.9123u 
    3.66100n   -1.8971u 
    3.66200n   -1.8820u 
    3.66300n   -1.8669u 
    3.66400n   -1.8517u 
    3.66500n   -1.8366u 
    3.66600n   -1.8215u 
    3.66700n   -1.8063u 
    3.66800n   -1.7912u 
    3.66900n   -1.7761u 
    3.67000n   -1.7609u 
    3.67100n   -1.7458u 
    3.67200n   -1.7306u 
    3.67300n   -1.7155u 
    3.67400n   -1.7004u 
    3.67500n   -1.6852u 
    3.67600n   -1.6701u 
    3.67700n   -1.6550u 
    3.67800n   -1.6398u 
    3.67900n   -1.6247u 
    3.68000n   -1.6096u 
    3.68100n   -1.5944u 
    3.68200n   -1.5793u 
    3.68300n   -1.5642u 
    3.68400n   -1.5490u 
    3.68500n   -1.5339u 
    3.68600n   -1.5187u 
    3.68700n   -1.5036u 
    3.68800n   -1.4885u 
    3.68900n   -1.4733u 
    3.69000n   -1.4582u 
    3.69100n   -1.4431u 
    3.69200n   -1.4279u 
    3.69300n   -1.4128u 
    3.69400n   -1.3977u 
    3.69500n   -1.3825u 
    3.69600n   -1.3674u 
    3.69700n   -1.3523u 
    3.69800n   -1.3371u 
    3.69900n   -1.3220u 
    3.70000n   -1.3068u 
    3.70100n   -1.2917u 
    3.70200n   -1.2766u 
    3.70300n   -1.2614u 
    3.70400n   -1.2463u 
    3.70500n   -1.2652u 
    3.70600n   -1.2884u 
    3.70700n   -1.3115u 
    3.70800n   -1.3346u 
    3.70900n   -1.3577u 
    3.71000n   -1.3809u 
    3.71100n   -1.4040u 
    3.71200n   -1.4271u 
    3.71300n   -1.4502u 
    3.71400n   -1.4734u 
    3.71500n   -1.4965u 
    3.71600n   -1.5196u 
    3.71700n   -1.5427u 
    3.71800n   -1.5658u 
    3.71900n   -1.5890u 
    3.72000n   -1.6121u 
    3.72100n   -1.6352u 
    3.72200n   -1.6583u 
    3.72300n   -1.6815u 
    3.72400n   -1.7046u 
    3.72500n   -1.7277u 
    3.72600n   -1.7508u 
    3.72700n   -1.7740u 
    3.72800n   -1.7971u 
    3.72900n   -1.8202u 
    3.73000n   -1.8433u 
    3.73100n   -1.8665u 
    3.73200n   -1.8896u 
    3.73300n   -1.9127u 
    3.73400n   -1.9358u 
    3.73500n   -1.9589u 
    3.73600n   -1.9821u 
    3.73700n   -2.0052u 
    3.73800n   -2.0283u 
    3.73900n   -2.0514u 
    3.74000n   -2.0746u 
    3.74100n   -2.0977u 
    3.74200n   -2.1208u 
    3.74300n   -2.1439u 
    3.74400n   -2.1671u 
    3.74500n   -2.1902u 
    3.74600n   -2.2133u 
    3.74700n   -2.2040u 
    3.74800n   -2.1851u 
    3.74900n   -2.1663u 
    3.75000n   -2.1474u 
    3.75100n   -2.1286u 
    3.75200n   -2.1097u 
    3.75300n   -2.0909u 
    3.75400n   -2.0720u 
    3.75500n   -2.0532u 
    3.75600n   -2.0343u 
    3.75700n   -2.0155u 
    3.75800n   -1.9966u 
    3.75900n   -1.9778u 
    3.76000n   -1.9589u 
    3.76100n   -1.9400u 
    3.76200n   -1.9212u 
    3.76300n   -1.9023u 
    3.76400n   -1.8835u 
    3.76500n   -1.8646u 
    3.76600n   -1.8458u 
    3.76700n   -1.8269u 
    3.76800n   -1.8081u 
    3.76900n   -1.7892u 
    3.77000n   -1.7704u 
    3.77100n   -1.7515u 
    3.77200n   -1.7327u 
    3.77300n   -1.7138u 
    3.77400n   -1.6950u 
    3.77500n   -1.6761u 
    3.77600n   -1.6573u 
    3.77700n   -1.6384u 
    3.77800n   -1.6196u 
    3.77900n   -1.6007u 
    3.78000n   -1.5819u 
    3.78100n   -1.5630u 
    3.78200n   -1.5441u 
    3.78300n   -1.5253u 
    3.78400n   -1.5064u 
    3.78500n   -1.4876u 
    3.78600n   -1.4687u 
    3.78700n   -1.4499u 
    3.78800n   -1.4310u 
    3.78900n   -1.4122u 
    3.79000n   -1.3933u 
    3.79100n   -1.3745u 
    3.79200n   -1.3556u 
    3.79300n   -1.3368u 
    3.79400n   -1.3179u 
    3.79500n   -1.2991u 
    3.79600n   -1.2802u 
    3.79700n   -1.2614u 
    3.79800n   -1.2425u 
    3.79900n   -1.2237u 
    3.80000n   -1.2048u 
    3.80100n   -1.1860u 
    3.80200n   -1.1671u 
    3.80300n   -1.1482u 
    3.80400n   -1.1294u 
    3.80500n   -1.1105u 
    3.80600n   -1.0917u 
    3.80700n   -1.0728u 
    3.80800n   -1.0540u 
    3.80900n   -1.0351u 
    3.81000n   -1.0163u 
    3.81100n -997.4258n 
    3.81200n -978.5734n 
    3.81300n -959.7209n 
    3.81400n -940.8685n 
    3.81500n -950.3819n 
    3.81600n -978.6477n 
    3.81700n   -1.0069u 
    3.81800n   -1.0352u 
    3.81900n   -1.0634u 
    3.82000n   -1.0917u 
    3.82100n   -1.1200u 
    3.82200n   -1.1482u 
    3.82300n   -1.1765u 
    3.82400n   -1.2048u 
    3.82500n   -1.2330u 
    3.82600n   -1.2613u 
    3.82700n   -1.2896u 
    3.82800n   -1.3178u 
    3.82900n   -1.3461u 
    3.83000n   -1.3744u 
    3.83100n   -1.4026u 
    3.83200n   -1.4309u 
    3.83300n   -1.4592u 
    3.83400n   -1.4874u 
    3.83500n   -1.5157u 
    3.83600n   -1.5440u 
    3.83700n   -1.5722u 
    3.83800n   -1.6005u 
    3.83900n   -1.6288u 
    3.84000n   -1.6570u 
    3.84100n   -1.6853u 
    3.84200n   -1.7136u 
    3.84300n   -1.7418u 
    3.84400n   -1.7701u 
    3.84500n   -1.7984u 
    3.84600n   -1.8266u 
    3.84700n   -1.8549u 
    3.84800n   -1.8687u 
    3.84900n   -1.8429u 
    3.85000n   -1.8171u 
    3.85100n   -1.7913u 
    3.85200n   -1.7654u 
    3.85300n   -1.7396u 
    3.85400n   -1.7138u 
    3.85500n   -1.6880u 
    3.85600n   -1.6621u 
    3.85700n   -1.6363u 
    3.85800n   -1.6105u 
    3.85900n   -1.5847u 
    3.86000n   -1.5589u 
    3.86100n   -1.5330u 
    3.86200n   -1.5072u 
    3.86300n   -1.4814u 
    3.86400n   -1.4556u 
    3.86500n   -1.4297u 
    3.86600n   -1.4039u 
    3.86700n   -1.3781u 
    3.86800n   -1.3523u 
    3.86900n   -1.3264u 
    3.87000n   -1.3006u 
    3.87100n   -1.2748u 
    3.87200n   -1.2490u 
    3.87300n   -1.2231u 
    3.87400n   -1.1973u 
    3.87500n   -1.1715u 
    3.87600n   -1.1457u 
    3.87700n   -1.1198u 
    3.87800n   -1.0940u 
    3.87900n   -1.0682u 
    3.88000n   -1.0424u 
    3.88100n   -1.0165u 
    3.88200n -990.7168n 
    3.88300n -964.8926n 
    3.88400n -939.0683n 
    3.88500n -913.2440n 
    3.88600n -887.4198n 
    3.88700n -861.5955n 
    3.88800n -835.7713n 
    3.88900n -809.9470n 
    3.89000n -784.1227n 
    3.89100n -758.2985n 
    3.89200n -732.4742n 
    3.89300n -706.6499n 
    3.89400n -680.8257n 
    3.89500n -655.0014n 
    3.89600n -650.2584n 
    3.89700n -659.5267n 
    3.89800n -668.7949n 
    3.89900n -678.0631n 
    3.90000n -687.3313n 
    3.90100n -696.5996n 
    3.90200n -705.8678n 
    3.90300n -715.1360n 
    3.90400n -724.4042n 
    3.90500n -733.6725n 
    3.90600n -742.9407n 
    3.90700n -752.2089n 
    3.90800n -761.4771n 
    3.90900n -770.7454n 
    3.91000n -780.0136n 
    3.91100n -789.2818n 
    3.91200n -798.5500n 
    3.91300n -807.8182n 
    3.91400n -817.0865n 
    3.91500n -826.3547n 
    3.91600n -835.6229n 
    3.91700n -844.8911n 
    3.91800n -854.1594n 
    3.91900n -863.4276n 
    3.92000n -872.6958n 
    3.92100n -881.9640n 
    3.92200n -891.2323n 
    3.92300n -900.5005n 
    3.92400n -909.7687n 
    3.92500n -919.0369n 
    3.92600n -928.3052n 
    3.92700n -937.5734n 
    3.92800n -946.8416n 
    3.92900n -956.1098n 
    3.93000n -965.3781n 
    3.93100n -974.6463n 
    3.93200n -983.9145n 
    3.93300n -993.1827n 
    3.93400n   -1.0025u 
    3.93500n   -1.0117u 
    3.93600n   -1.0210u 
    3.93700n   -1.0303u 
    3.93800n   -1.0395u 
    3.93900n   -1.0488u 
    3.94000n   -1.0581u 
    3.94100n   -1.0673u 
    3.94200n   -1.0766u 
    3.94300n   -1.0859u 
    3.94400n   -1.0951u 
    3.94500n   -1.1044u 
    3.94600n   -1.1137u 
    3.94700n   -1.1229u 
    3.94800n   -1.1322u 
    3.94900n   -1.1415u 
    3.95000n   -1.1507u 
    3.95100n   -1.1600u 
    3.95200n   -1.1693u 
    3.95300n   -1.1785u 
    3.95400n   -1.1878u 
    3.95500n   -1.1971u 
    3.95600n   -1.2064u 
    3.95700n   -1.2156u 
    3.95800n   -1.2249u 
    3.95900n   -1.2342u 
    3.96000n   -1.2434u 
    3.96100n   -1.2527u 
    3.96200n   -1.2620u 
    3.96300n   -1.2712u 
    3.96400n   -1.2805u 
    3.96500n   -1.2898u 
    3.96600n   -1.2990u 
    3.96700n   -1.3083u 
    3.96800n   -1.3176u 
    3.96900n   -1.3268u 
    3.97000n   -1.3361u 
    3.97100n   -1.3454u 
    3.97200n   -1.3546u 
    3.97300n   -1.3639u 
    3.97400n   -1.3732u 
    3.97500n   -1.3824u 
    3.97600n   -1.3917u 
    3.97700n   -1.4010u 
    3.97800n   -1.4103u 
    3.97900n   -1.3468u 
    3.98000n   -1.2412u 
    3.98100n   -1.1356u 
    3.98200n   -1.0300u 
    3.98300n -924.3778n 
    3.98400n -818.7816n 
    3.98500n -713.1854n 
    3.98600n -607.5892n 
    3.98700n -501.9930n 
    3.98800n -396.3968n 
    3.98848n -345.7107n 
y
 meas_current_selected= -73.3168f  from=   0.             to=   3.9885n
 meas_avg_power_selected=  18.3821u
 meas_current_unselected=-182.1434f  from=   0.             to=   3.9885n
 meas_avg_power_unselected=  45.6674u

          ***** job concluded
 ****** HSPICE -- K-2015.06-SP2 linux64 (Nov 18 2015) ******                    
 ******  
 .title sram write power measurement circuit

 ****** job statistics summary tnom=  25.000 temp=  25.000 ******
  
  
 ******  Machine Information  ******
 CPU:
 model name	: Intel(R) Xeon(R) CPU E7- 4850  @ 2.00GHz
 cpu MHz	: 1994.935
  
 OS:
 Linux version 2.6.32-754.29.2.el6.x86_64 (mockbuild@x86-02.bsys.centos.org) (gcc version 4.4.7 20120313 (Red Hat 4.4.7-23) (GCC) ) #1 SMP Tue May 12 17:39:04 UTC 2020


  ******  HSPICE Threads Information  ******

  Command Line Threads Count :     1
  Available CPU Count        :    80
  Actual Threads Count       :     1


  ******  Circuit Statistics  ******
  # nodes       =   18668 # elements   =    7234
  # resistors   =    1029 # capacitors =    2048 # inductors   =       0
  # mutual_inds =       0 # vccs       =       0 # vcvs        =       0
  # cccs        =       0 # ccvs       =       0 # volt_srcs   =      10
  # curr_srcs   =       0 # diodes     =       0 # bjts        =       0
  # jfets       =       0 # mosfets    =    4147 # U elements  =       0
  # T elements  =       0 # W elements =       0 # B elements  =       0
  # S elements  =       0 # P elements =       0 # va device   =       0
  # vector_srcs =       0 # N elements =       0


  ******  Runtime Statistics (seconds)  ******

  analysis           time    # points   tot. iter  conv.iter
  op point           0.24           1          11
  transient          4.97        3989         615         228 rev=        13
  readin             0.23
  errchk             0.39
  setup              0.66
  output             0.00


           peak memory used        238.67 megabytes
           total cpu time            6.65 seconds
           total elapsed time        6.43 seconds
           job started at     15:18:29 07/08/2020
           job ended   at     15:18:36 07/08/2020



>info:         ***** hspice job concluded
 lic: Release hspice token(s) 
 lic: total license checkout elapse time:        0.26(s)
