Using: /usr/local/packages/synopsys_2018/hspice/O-2018.09-SP1/hspice/linux64/hspice samp1part2.sp
 ****** HSPICE -- O-2018.09-SP1 linux64 (Nov 25 2018) ******                    
  Copyright (c) 1986 - 2023 by Synopsys, Inc. All Rights Reserved.              
  This software and the associated documentation are proprietary
  to Synopsys, Inc. This software may only be used in accordance
  with the terms and conditions of a written license agreement with
  Synopsys, Inc. All other use, reproduction, or distribution of
  this software is strictly prohibited.
  Input File: samp1part2.sp                                                     
  Command line options: /usr/local/packages/synopsys_2018/hspice/O-2018.09-SP1/hspice/linux64/hspice samp1part2.sp
  Start time: Thu Feb  2 11:34:30 2023
 lic:  
 lic: FLEXlm: SDK_11.6.9.6 
 lic: USER:   aarora1              HOSTNAME: koopa.ece.utexas.edu 
 lic: HOSTID: "e4434bc49dca"       PID:      283849 
 lic: Using FLEXlm license file: 
 lic: /usr/local/packages/synopsys_2018/key 
 lic: Checkout 1 hspice 
 lic: License/Maintenance for hspice will expire on 14-jan-2025/2022.06 
 lic: 1(in_use)/100(total) FLOATING license(s) on SERVER /usr/local/packages/synopsys_2018/key 
 lic:   
  **info** (samp1part2.sp:17) DC voltage reset to initial transient source value in source 0:vin. new dc=0.1000D+01
  **warning** (v_$vin:0) pulse rise time is  < or = zero, reset to tstep
  **warning** (v_$vin:0) pulse fall time is  < or = zero, reset to tstep
  **warning** (v_$viww:0) pulse rise time is  < or = zero, reset to tstep
  **warning** (v_$viww:0) pulse fall time is  < or = zero, reset to tstep
  **warning** (i_$iread:0) pulse rise time is  < or = zero, reset to tstep
  **warning** (i_$iread:0) pulse fall time is  < or = zero, reset to tstep
  **warning** (nmos_lp:m1 (../subcircuits.l:1082)) Warning:  Acde = 0.245565 may be too small in BSIM4 model with w=1.15e-07 l=2.2e-08.
  

  **warning** the following singular supplies were terminated to 1 meg resistor 
          supply       node1            node2
(samp1part2.sp:17)vin                     0:n_in             defined in subckt 0                     0:0                defined in subckt 0               
(../process_data.l:34)vclmomtjn               0:vclmpmtj         defined in subckt 0                     0:0                defined in subckt 0               
(../process_data.l:29)vsupply                 0:vdd              defined in subckt 0                     0:0                defined in subckt 0               
(../process_data.l:33)vrefmtjn                0:vrefmtj          defined in subckt 0                     0:0                defined in subckt 0               
(../process_data.l:32)vsram                   0:vsram            defined in subckt 0                     0:0                defined in subckt 0               
(../process_data.l:35)vsram_n                 0:vsram_n          defined in subckt 0                     0:0                defined in subckt 0               
(samp1part2.sp:18)viww                    0:wordline         defined in subckt 0                     0:0                defined in subckt 0               
      
  **warning** (v_$vin:0) pulse rise time is  < or = zero, reset to tstep
  **warning** (v_$vin:0) pulse fall time is  < or = zero, reset to tstep
  **warning** (v_$viww:0) pulse rise time is  < or = zero, reset to tstep
  **warning** (v_$viww:0) pulse fall time is  < or = zero, reset to tstep
  **warning** (i_$iread:0) pulse rise time is  < or = zero, reset to tstep
  **warning** (i_$iread:0) pulse fall time is  < or = zero, reset to tstep

Element variations(Local):   element              parameter
 **info** set option symb=1 internally to help for convergence.
 *****************************************************************
 ******  option summary
 ******
 runlvl  = 3         bypass  = 2.0000    
             
 Summary of Linear Res Distribution Info
 ---------------------------------------
 |Range          |Total     |Percent(%)|
 |---------------+----------+----------|
 |1e+00  ~  1e+03|256       |97.3384   |
 |1e+05  ~  1e+06|7         |2.6616    |
 ---------------------------------------
              
             
 Summary of Linear Cap Distribution Info
 ---------------------------------------
 |Range          |Total     |Percent(%)|
 |---------------+----------+----------|
 |1e-17  ~  1e-16|512       |100.0000  |
 ---------------------------------------
              
             
 Summary of Detailed RC Type Statistics
 -----------------------------
 |Element Type    |Number    |
 |----------------+----------|
 |Constant Res    |256       |
 |Other Linear Res|7         |
 |                |          |
 |Constant Cap    |512       |
 -----------------------------
              
 **info** dc convergence successful at Newton-Raphson method 

   *** data name = sweep_data , index =     1 ***

 ******
 .title sense amp

 ****** transient analysis tnom=  25.000 temp=  25.000 ******
 meas_total_tfall= 363.1096p  targ= 363.1396p   trig=  30.0000f
 meas_total_trise= 363.1096p  targ= 363.1396p   trig=  30.0000f
 meas_logic_low_voltage=   0.        
 meas_current=-236.2749a  from=   0.             to=   4.0000n
 meas_avg_power=  59.0687n

          ***** job concluded
1****** HSPICE -- O-2018.09-SP1 linux64 (Nov 25 2018) ******                    
 ******  
 .title sense amp

 ****** job statistics summary tnom=  25.000 temp=  25.000 ******
  
 ******  Machine Information  ******
 CPU:
 model name	: Intel(R) Xeon(R) Gold 5218 CPU @ 2.30GHz
 cpu MHz	: 1000.354
  
 OS:
 Linux version 3.10.0-1160.81.1.el7.x86_64 (mockbuild@kbuilder.bsys.centos.org) (gcc version 4.8.5 20150623 (Red Hat 4.8.5-44) (GCC) ) #1 SMP Fri Dec 16 17:29:43 UTC 2022


  ******  HSPICE Threads Information  ******

  Command Line Threads Count :     1
  Available CPU Count        :    64
  Actual Threads Count       :     1


  ******  Circuit Statistics  ******
  # nodes       =    4753 # elements   =    1839
  # resistors   =     263 # capacitors =     512 # inductors   =       0
  # mutual_inds =       0 # vccs       =       0 # vcvs        =       0
  # cccs        =       0 # ccvs       =       0 # volt_srcs   =       9
  # curr_srcs   =       1 # diodes     =       0 # bjts        =       0
  # jfets       =       0 # mosfets    =    1054 # U elements  =       0
  # T elements  =       0 # W elements =       0 # B elements  =       0
  # S elements  =       0 # P elements =       0 # va device   =       0
  # vector_srcs =       0 # N elements =       0


  ******  Runtime Statistics (seconds)  ******

  analysis           time    # points   tot. iter  conv.iter
  op point           0.14           1          24
  transient          0.45        4001         187          70 rev=         4
  readin             0.09
  errchk             0.09
  setup              0.16
  output             0.00


           peak memory used        308.89 megabytes
           total cpu time            0.93 seconds
           total elapsed time        0.52 seconds
           job started at     11:34:30 02/02/2023
           job ended   at     11:34:31 02/02/2023



>info:         ***** hspice job concluded
 lic: Release hspice token(s) 
 lic: total license checkout elapse time:        0.03(s)
