Using: /usr/local/packages/synopsys_2015/hspice/hspice/linux64/hspice rowdecoderstage3.sp
 ****** HSPICE -- K-2015.06-SP2 linux64 (Nov 18 2015) ******                    
  Copyright (c) 1986 - 2020 by Synopsys, Inc. All Rights Reserved.              
  This software and the associated documentation are proprietary
  to Synopsys, Inc. This software may only be used in accordance
  with the terms and conditions of a written license agreement with
  Synopsys, Inc. All other use, reproduction, or distribution of
  this software is strictly prohibited.
  Input File: rowdecoderstage3.sp                                               
  Command line options: /usr/local/packages/synopsys_2015/hspice/hspice/linux64/hspice rowdecoderstage3.sp
 lic:  
 lic: FLEXlm: v11.2.1 
 lic: USER:   aarora1              HOSTNAME: luigi 
 lic: HOSTID: "782bcb44a06e"       PID:      26140 
 lic: Using FLEXlm license file: 
 lic: /usr/local/packages/synopsys_2015/key 
 lic: Checkout 1 hspice 
 lic: License/Maintenance for hspice will expire on 14-jan-2021/2019.06 
 lic: 2(in_use)/100(total) FLOATING license(s) on SERVER /usr/local/packages/synopsys_2015/key 
 lic:   
 Init: read install configuration file: /usr/local/packages/synopsys_2015/hspice/hspice/meta.cfg
  **info** (rowdecoderstage3.sp:17) DC voltage reset to initial transient source value in source        0:vin. new dc=  0.0000D+00
  **warning** (v_$vin:0) pulse rise time is  < or = zero, reset to tstep
  **warning** (v_$vin:0) pulse fall time is  < or = zero, reset to tstep
  **warning** (nmos:mndown2 (../basic_subcircuits.l:123)) Warning:  Acde = 0.245565 may be too small in BSIM4 model with w=4.5e-08 l=2.2e-08.
  

  **warning** the following singular supplies were terminated to 1 meg resistor 
          supply       node1            node2
(../process_data.l:34)vclmomtjn               0:vclmpmtj         defined in subckt 0                     0:0                defined in subckt 0               
(../process_data.l:29)vsupply                 0:vdd              defined in subckt 0                     0:0                defined in subckt 0               
(../process_data.l:33)vrefmtjn                0:vrefmtj          defined in subckt 0                     0:0                defined in subckt 0               
(../process_data.l:32)vsram                   0:vsram            defined in subckt 0                     0:0                defined in subckt 0               
(../process_data.l:35)vsram_n                 0:vsram_n          defined in subckt 0                     0:0                defined in subckt 0               
      
  **warning** (v_$vin:0) pulse rise time is  < or = zero, reset to tstep
  **warning** (v_$vin:0) pulse fall time is  < or = zero, reset to tstep
 **info** set option symb=1 internally to help for convergence.
 *****************************************************************
 ******  option summary
 ******
 runlvl  = 3         bypass  = 2         
 **info** dc convergence successful at Newton-Raphson method 

   *** data name = sweep_data , index =     1 ***

 ******
 .title thirdstage

 ****** transient analysis tnom=  25.000 temp=  25.000 ******
 meaz1_inv_nand3_rowdecoderstage3_1_tfall=  19.1048p  targ=  88.1037p   trig=  68.9989p
 meaz1_inv_nand3_rowdecoderstage3_1_trise=  13.6728p  targ=   2.0768n   trig=   2.0631n
 meaz1_inv_rowdecoderstage3_2_tfall=  16.7262p  targ=   2.0798n   trig=   2.0631n
 meaz1_inv_rowdecoderstage3_2_trise=  24.4538p  targ=  93.4526p   trig=  68.9989p
 meaz1_total_tfall=  16.7262p  targ=   2.0798n   trig=   2.0631n
 meaz1_total_trise=  24.4538p  targ=  93.4526p   trig=  68.9989p
 meaz2_inv_nand3_rowdecoderstage3_1_tfall=  17.9102p  targ= 122.3167p   trig= 104.4065p
 meaz2_inv_nand3_rowdecoderstage3_1_trise=  12.1944p  targ=   2.0847n   trig=   2.0725n
 meaz2_inv_rowdecoderstage3_2_tfall=  15.3577p  targ=   2.0879n   trig=   2.0725n
 meaz2_inv_rowdecoderstage3_2_trise=  23.2521p  targ= 127.6586p   trig= 104.4065p
 meaz2_total_tfall=  15.3577p  targ=   2.0879n   trig=   2.0725n
 meaz2_total_trise=  23.2521p  targ= 127.6586p   trig= 104.4065p
 meas_logic_low_voltage=   0.     
 meaz1_current=  -1.4282f  from=   0.             to=   4.0000n
 meaz1_avg_power= 357.0546n
 meaz2_current=  -1.4238f  from=   0.             to=   4.0000n
 meaz2_avg_power= 355.9598n

          ***** job concluded
 ****** HSPICE -- K-2015.06-SP2 linux64 (Nov 18 2015) ******                    
 ******  
 .title thirdstage

 ****** job statistics summary tnom=  25.000 temp=  25.000 ******
  
  
 ******  Machine Information  ******
 CPU:
 model name	: Intel(R) Xeon(R) CPU E7- 4850  @ 2.00GHz
 cpu MHz	: 1994.935
  
 OS:
 Linux version 2.6.32-754.29.2.el6.x86_64 (mockbuild@x86-02.bsys.centos.org) (gcc version 4.4.7 20120313 (Red Hat 4.4.7-23) (GCC) ) #1 SMP Tue May 12 17:39:04 UTC 2020


  ******  HSPICE Threads Information  ******

  Command Line Threads Count :     1
  Available CPU Count        :    80
  Actual Threads Count       :     1


  ******  Circuit Statistics  ******
  # nodes       =     771 # elements   =     222
  # resistors   =      19 # capacitors =      28 # inductors   =       0
  # mutual_inds =       0 # vccs       =       0 # vcvs        =       0
  # cccs        =       0 # ccvs       =       0 # volt_srcs   =       9
  # curr_srcs   =       0 # diodes     =       0 # bjts        =       0
  # jfets       =       0 # mosfets    =     166 # U elements  =       0
  # T elements  =       0 # W elements =       0 # B elements  =       0
  # S elements  =       0 # P elements =       0 # va device   =       0
  # vector_srcs =       0 # N elements =       0


  ******  Runtime Statistics (seconds)  ******

  analysis           time    # points   tot. iter  conv.iter
  op point           0.03           1          20
  transient          0.35        4001         350         125 rev=         1
  readin             0.05
  errchk             0.03
  setup              0.01
  output             0.00


           peak memory used        198.62 megabytes
           total cpu time            0.49 seconds
           total elapsed time        0.51 seconds
           job started at     14:54:39 07/08/2020
           job ended   at     14:54:40 07/08/2020



>info:         ***** hspice job concluded
 lic: Release hspice token(s) 
 lic: total license checkout elapse time:        0.24(s)
