Using: /usr/local/packages/synopsys_2015/hspice/hspice/linux64/hspice sb_mux.sp
 ****** HSPICE -- K-2015.06-SP2 linux64 (Nov 18 2015) ******                    
  Copyright (c) 1986 - 2020 by Synopsys, Inc. All Rights Reserved.              
  This software and the associated documentation are proprietary
  to Synopsys, Inc. This software may only be used in accordance
  with the terms and conditions of a written license agreement with
  Synopsys, Inc. All other use, reproduction, or distribution of
  this software is strictly prohibited.
  Input File: sb_mux.sp                                                         
  Command line options: /usr/local/packages/synopsys_2015/hspice/hspice/linux64/hspice sb_mux.sp
 lic:  
 lic: FLEXlm: v11.2.1 
 lic: USER:   aarora1              HOSTNAME: luigi 
 lic: HOSTID: "782bcb44a06e"       PID:      1871 
 lic: Using FLEXlm license file: 
 lic: /usr/local/packages/synopsys_2015/key 
 lic: Checkout 1 hspice 
 lic: License/Maintenance for hspice will expire on 14-jan-2021/2019.06 
 lic: 2(in_use)/100(total) FLOATING license(s) on SERVER /usr/local/packages/synopsys_2015/key 
 lic:   
 Init: read install configuration file: /usr/local/packages/synopsys_2015/hspice/hspice/meta.cfg
  **info** (sb_mux.sp:17) DC voltage reset to initial transient source value in source        0:vin. new dc=  0.0000D+00
  **warning** (v_$vin:0) pulse rise time is  < or = zero, reset to tstep
  **warning** (v_$vin:0) pulse fall time is  < or = zero, reset to tstep
  **warning** (nmos:mnpass (../basic_subcircuits.l:19)) Warning:  Acde = 0.245565 may be too small in BSIM4 model with w=1.8e-07 l=2.2e-08.
  
  **warning** No connections on node n_hang_2; Node ignored.

  **warning** the following singular supplies were terminated to 1 meg resistor 
          supply       node1            node2
(../process_data.l:34)vclmomtjn               0:vclmpmtj         defined in subckt 0                     0:0                defined in subckt 0               
(../process_data.l:30)vsupplylp               0:vdd_lp           defined in subckt 0                     0:0                defined in subckt 0               
(../process_data.l:33)vrefmtjn                0:vrefmtj          defined in subckt 0                     0:0                defined in subckt 0               
(../process_data.l:35)vsram_n                 0:vsram_n          defined in subckt 0                     0:0                defined in subckt 0               
      
  **warning** (v_$vin:0) pulse rise time is  < or = zero, reset to tstep
  **warning** (v_$vin:0) pulse fall time is  < or = zero, reset to tstep
 *****************************************************************
 ******  option summary
 ******
 runlvl  = 3         bypass  = 2         
 no convergence with standard algorithm,  trying damped pseudo-transient

  *** pseudo tran succeeded *** 

   *** data name = sweep_data , index =     1 ***

 ******
 .title switch block multiplexer

 ****** transient analysis tnom=  25.000 temp=  25.000 ******
 meas_inv_sb_mux_1_tfall=  62.3798p  targ= 229.7514p   trig= 167.3716p
 meas_inv_sb_mux_1_trise=  62.6887p  targ=   2.1909n   trig=   2.1282n
 meas_inv_sb_mux_2_tfall= 180.2134p  targ=   2.3085n   trig=   2.1282n
 meas_inv_sb_mux_2_trise= 178.6870p  targ= 346.0586p   trig= 167.3716p
 meas_total_tfall= 180.2134p  targ=   2.3085n   trig=   2.1282n
 meas_total_trise= 178.6870p  targ= 346.0586p   trig= 167.3716p
 meas_logic_low_voltage=  91.5245u
 meas_current=-146.7087f  from=   0.             to=   4.0000n
 meas_avg_power=  29.3417u

          ***** job concluded
 ****** HSPICE -- K-2015.06-SP2 linux64 (Nov 18 2015) ******                    
 ******  
 .title switch block multiplexer

 ****** job statistics summary tnom=  25.000 temp=  25.000 ******
  
  
 ******  Machine Information  ******
 CPU:
 model name	: Intel(R) Xeon(R) CPU E7- 4850  @ 2.00GHz
 cpu MHz	: 1994.935
  
 OS:
 Linux version 2.6.32-754.29.2.el6.x86_64 (mockbuild@x86-02.bsys.centos.org) (gcc version 4.4.7 20120313 (Red Hat 4.4.7-23) (GCC) ) #1 SMP Tue May 12 17:39:04 UTC 2020


  ******  HSPICE Threads Information  ******

  Command Line Threads Count :     1
  Available CPU Count        :    80
  Actual Threads Count       :     1


  ******  Circuit Statistics  ******
  # nodes       =     774 # elements   =     595
  # resistors   =     153 # capacitors =     286 # inductors   =       0
  # mutual_inds =       0 # vccs       =       0 # vcvs        =       0
  # cccs        =       0 # ccvs       =       0 # volt_srcs   =       8
  # curr_srcs   =       0 # diodes     =       0 # bjts        =       0
  # jfets       =       0 # mosfets    =     148 # U elements  =       0
  # T elements  =       0 # W elements =       0 # B elements  =       0
  # S elements  =       0 # P elements =       0 # va device   =       0
  # vector_srcs =       0 # N elements =       0


  ******  Runtime Statistics (seconds)  ******

  analysis           time    # points   tot. iter  conv.iter
  op point           0.56           1         435
  transient          0.38        8001         400         147 rev=         2
  readin             0.10
  errchk             0.04
  setup              0.00
  output             0.00


           peak memory used        199.21 megabytes
           total cpu time            1.09 seconds
           total elapsed time        0.83 seconds
           job started at     13:29:30 07/08/2020
           job ended   at     13:29:31 07/08/2020



>info:         ***** hspice job concluded
 lic: Release hspice token(s) 
 lic: total license checkout elapse time:        0.25(s)
