Using: /usr/local/packages/synopsys_2015/hspice/hspice/linux64/hspice xconfigurabledecoderiii.sp
 ****** HSPICE -- K-2015.06-SP2 linux64 (Nov 18 2015) ******                    
  Copyright (c) 1986 - 2020 by Synopsys, Inc. All Rights Reserved.              
  This software and the associated documentation are proprietary
  to Synopsys, Inc. This software may only be used in accordance
  with the terms and conditions of a written license agreement with
  Synopsys, Inc. All other use, reproduction, or distribution of
  this software is strictly prohibited.
  Input File: xconfigurabledecoderiii.sp                                        
  Command line options: /usr/local/packages/synopsys_2015/hspice/hspice/linux64/hspice xconfigurabledecoderiii.sp
 lic:  
 lic: FLEXlm: v11.2.1 
 lic: USER:   aarora1              HOSTNAME: luigi 
 lic: HOSTID: "782bcb44a06e"       PID:      34469 
 lic: Using FLEXlm license file: 
 lic: /usr/local/packages/synopsys_2015/key 
 lic: Checkout 1 hspice 
 lic: License/Maintenance for hspice will expire on 14-jan-2021/2019.06 
 lic: 2(in_use)/100(total) FLOATING license(s) on SERVER /usr/local/packages/synopsys_2015/key 
 lic:   
 Init: read install configuration file: /usr/local/packages/synopsys_2015/hspice/hspice/meta.cfg
  **info** (xconfigurabledecoderiii.sp:17) DC voltage reset to initial transient source value in source        0:vin. new dc=  0.0000D+00
  **warning** (v_$vin:0) pulse rise time is  < or = zero, reset to tstep
  **warning** (v_$vin:0) pulse fall time is  < or = zero, reset to tstep
  **warning** (nmos:mntgate (../basic_subcircuits.l:162)) Warning:  Acde = 0.245565 may be too small in BSIM4 model with w=2e-07 l=2.2e-08.
  

  **warning** the following singular supplies were terminated to 1 meg resistor 
          supply       node1            node2
(../process_data.l:34)vclmomtjn               0:vclmpmtj         defined in subckt 0                     0:0                defined in subckt 0               
(../process_data.l:29)vsupply                 0:vdd              defined in subckt 0                     0:0                defined in subckt 0               
(../process_data.l:33)vrefmtjn                0:vrefmtj          defined in subckt 0                     0:0                defined in subckt 0               
(../process_data.l:32)vsram                   0:vsram            defined in subckt 0                     0:0                defined in subckt 0               
(../process_data.l:35)vsram_n                 0:vsram_n          defined in subckt 0                     0:0                defined in subckt 0               
      
  **warning** (v_$vin:0) pulse rise time is  < or = zero, reset to tstep
  **warning** (v_$vin:0) pulse fall time is  < or = zero, reset to tstep
 **info** set option symb=1 internally to help for convergence.
 *****************************************************************
 ******  option summary
 ******
 runlvl  = 3         bypass  = 2         
 **info** dc convergence successful at Newton-Raphson method 

   *** data name = sweep_data , index =     1 ***

 ******
 .title last stage of configurable decoder

 ****** transient analysis tnom=  25.000 temp=  25.000 ******
 meaz1_inv_nand2_xconfigurabledecoderiii_1_tfall=  54.6655p  targ= 138.4129p   trig=  83.7474p
 meaz1_inv_nand2_xconfigurabledecoderiii_1_trise=  46.1135p  targ=   2.1031n   trig=   2.0570n
 meaz1_inv_xconfigurabledecoderiii_2_tfall= 105.1080p  targ=   2.1621n   trig=   2.0570n
 meaz1_inv_xconfigurabledecoderiii_2_trise= 122.5397p  targ= 206.2871p   trig=  83.7474p
 meaz1_total_tfall= 129.0408p  targ=   2.1861n   trig=   2.0570n
 meaz1_total_trise= 147.1685p  targ= 230.9159p   trig=  83.7474p
 meaz2_inv_nand2_xconfigurabledecoderiii_1_tfall=  52.6991p  targ= 112.2882p   trig=  59.5891p
 meaz2_inv_nand2_xconfigurabledecoderiii_1_trise=  46.9259p  targ=   2.1051n   trig=   2.0582n
 meaz2_inv_xconfigurabledecoderiii_2_tfall= 106.0044p  targ=   2.1642n   trig=   2.0582n
 meaz2_inv_xconfigurabledecoderiii_2_trise= 120.6122p  targ= 180.2013p   trig=  59.5891p
 meaz2_total_tfall= 129.9335p  targ=   2.1881n   trig=   2.0582n
 meaz2_total_trise= 145.1479p  targ= 204.7370p   trig=  59.5891p
 meas_logic_low_voltage=   0.     
 meaz1_current= -17.3089f  from=   0.             to=   4.0000n
 meaz1_avg_power=   4.3272u
 meaz2_current= -17.3039f  from=   0.             to=   4.0000n
 meaz2_avg_power=   4.3260u

          ***** job concluded
 ****** HSPICE -- K-2015.06-SP2 linux64 (Nov 18 2015) ******                    
 ******  
 .title last stage of configurable decoder

 ****** job statistics summary tnom=  25.000 temp=  25.000 ******
  
  
 ******  Machine Information  ******
 CPU:
 model name	: Intel(R) Xeon(R) CPU E7- 4850  @ 2.00GHz
 cpu MHz	: 1994.935
  
 OS:
 Linux version 2.6.32-754.29.2.el6.x86_64 (mockbuild@x86-02.bsys.centos.org) (gcc version 4.4.7 20120313 (Red Hat 4.4.7-23) (GCC) ) #1 SMP Tue May 12 17:39:04 UTC 2020


  ******  HSPICE Threads Information  ******

  Command Line Threads Count :     1
  Available CPU Count        :    80
  Actual Threads Count       :     1


  ******  Circuit Statistics  ******
  # nodes       =     491 # elements   =     338
  # resistors   =      83 # capacitors =     156 # inductors   =       0
  # mutual_inds =       0 # vccs       =       0 # vcvs        =       0
  # cccs        =       0 # ccvs       =       0 # volt_srcs   =       9
  # curr_srcs   =       0 # diodes     =       0 # bjts        =       0
  # jfets       =       0 # mosfets    =      90 # U elements  =       0
  # T elements  =       0 # W elements =       0 # B elements  =       0
  # S elements  =       0 # P elements =       0 # va device   =       0
  # vector_srcs =       0 # N elements =       0


  ******  Runtime Statistics (seconds)  ******

  analysis           time    # points   tot. iter  conv.iter
  op point           0.02           1          20
  transient          0.19        4001         281         106 rev=         1
  readin             0.06
  errchk             0.02
  setup              0.01
  output             0.00


           peak memory used        198.31 megabytes
           total cpu time            0.32 seconds
           total elapsed time        0.43 seconds
           job started at     14:59:58 07/08/2020
           job ended   at     14:59:59 07/08/2020



>info:         ***** hspice job concluded
 lic: Release hspice token(s) 
 lic: total license checkout elapse time:        0.25(s)
