Using: /usr/local/packages/synopsys_2015/hspice/hspice/linux64/hspice sram_writelh_power.sp
 ****** HSPICE -- K-2015.06-SP2 linux64 (Nov 18 2015) ******                    
  Copyright (c) 1986 - 2020 by Synopsys, Inc. All Rights Reserved.              
  This software and the associated documentation are proprietary
  to Synopsys, Inc. This software may only be used in accordance
  with the terms and conditions of a written license agreement with
  Synopsys, Inc. All other use, reproduction, or distribution of
  this software is strictly prohibited.
  Input File: sram_writelh_power.sp                                             
  Command line options: /usr/local/packages/synopsys_2015/hspice/hspice/linux64/hspice sram_writelh_power.sp
 lic:  
 lic: FLEXlm: v11.2.1 
 lic: USER:   aarora1              HOSTNAME: luigi 
 lic: HOSTID: "782bcb44a06e"       PID:      49013 
 lic: Using FLEXlm license file: 
 lic: /usr/local/packages/synopsys_2015/key 
 lic: Checkout 1 hspice 
 lic: License/Maintenance for hspice will expire on 14-jan-2021/2019.06 
 lic: 2(in_use)/100(total) FLOATING license(s) on SERVER /usr/local/packages/synopsys_2015/key 
 lic:   
 Init: read install configuration file: /usr/local/packages/synopsys_2015/hspice/hspice/meta.cfg
  **info** (sram_writelh_power.sp:18) DC voltage reset to initial transient source value in source        0:vdatain. new dc=  0.1000D+01
  **warning** (v_$vdatain:0) pulse rise time is  < or = zero, reset to tstep
  **warning** (v_$vdatain:0) pulse fall time is  < or = zero, reset to tstep
  **warning** (nmos:mntgate (../basic_subcircuits.l:162)) Warning:  Acde = 0.245565 may be too small in BSIM4 model with w=2e-07 l=2.2e-08.
  **warning** (sram_writelh_power.sp:3384) Unable to find referenced node xprechargesa.n_1_2; Output variable ignored. Specify a valid node.
  

  **warning** the following singular supplies were terminated to 1 meg resistor 
          supply       node1            node2
(../process_data.l:39)vclmomtjn               0:vclmpmtj         defined in subckt 0                     0:0                defined in subckt 0               
(../process_data.l:34)vsupply                 0:vdd              defined in subckt 0                     0:0                defined in subckt 0               
(../process_data.l:38)vrefmtjn                0:vrefmtj          defined in subckt 0                     0:0                defined in subckt 0               
(../process_data.l:37)vsram                   0:vsram            defined in subckt 0                     0:0                defined in subckt 0               
(../process_data.l:40)vsram_n                 0:vsram_n          defined in subckt 0                     0:0                defined in subckt 0               
      
  **warning** (v_$vdatain:0) pulse rise time is  < or = zero, reset to tstep
  **warning** (v_$vdatain:0) pulse fall time is  < or = zero, reset to tstep
 **info** set option symb=1 internally to help for convergence.
 *****************************************************************
 ******  option summary
 ******
 runlvl  = 3         bypass  = 2         
 **info** dc convergence successful at Newton-Raphson method 

   *** data name = sweep_data , index =     1 ***

 ******
 .title sram write power measurement circuit

 ****** transient analysis tnom=  25.000 temp=  25.000 ******
x

 time         voltage    voltage    voltage    voltage   
             tgate_l    tgate_r    n_bl_0     n_bl_128   
    0.        853.8684m   29.5141m  999.9987m  970.9159m 
    1.00000p  830.6816m   31.9610m  976.9817m  969.7153m 
    2.00000p  866.4756m   39.3651m  963.6782m  967.2160m 
    3.00000p  890.1575m   43.2489m  957.2282m  962.8358m 
    4.00000p  907.9484m   45.5177m  952.6708m  958.2875m 
    5.00000p  918.7172m   45.8918m  949.9449m  953.8143m 
    6.00000p  929.4860m   46.2658m  947.2191m  949.3412m 
    7.00000p  935.2487m   45.4101m  945.1536m  946.1621m 
    8.00000p  938.4794m   43.9323m  943.4219m  943.6377m 
    9.00000p  941.7102m   42.4546m  941.6903m  941.1132m 
   10.00000p  943.9769m   41.0470m  940.0554m  938.9885m 
   11.00000p  943.9822m   39.8042m  938.6475m  937.8018m 
   12.00000p  943.9876m   38.5613m  937.2395m  936.6150m 
   13.00000p  943.9929m   37.3185m  935.8315m  935.4283m 
   14.00000p  943.9982m   36.0756m  934.4235m  934.2415m 
   15.00000p  943.6854m   35.1591m  933.1258m  933.2013m 
   16.00000p  942.7479m   34.8832m  932.0446m  932.4488m 
   17.00000p  941.8103m   34.6074m  930.9633m  931.6963m 
   18.00000p  940.8728m   34.3315m  929.8821m  930.9438m 
   19.00000p  939.9352m   34.0557m  928.8008m  930.1913m 
   20.00000p  938.9977m   33.7799m  927.7196m  929.4388m 
   21.00000p  938.0601m   33.5040m  926.6384m  928.6863m 
   22.00000p  937.0876m   34.9220m  925.4067m  927.8363m 
   23.00000p  936.1092m   36.6294m  924.1493m  926.9697m 
   24.00000p  935.1308m   38.3368m  922.8919m  926.1030m 
   25.00000p  934.1523m   40.0441m  921.6345m  925.2363m 
   26.00000p  933.1739m   41.7515m  920.3771m  924.3697m 
   27.00000p  932.1955m   43.4589m  919.1198m  923.5030m 
   28.00000p  930.9097m   48.7702m  917.2405m  922.2241m 
   29.00000p  929.5506m   54.9406m  915.2130m  920.8470m 
   30.00000p  928.1916m   61.1110m  913.1856m  919.4699m 
   31.00000p  926.8325m   67.2813m  911.1581m  918.0927m 
   32.00000p  925.4735m   73.4517m  909.1306m  916.7156m 
   33.00000p  924.1145m   79.6221m  907.1031m  915.3385m 
   34.00000p  922.3418m   89.3571m  904.7117m  913.5343m 
   35.00000p  920.1546m  102.6654m  901.9553m  911.3019m 
   36.00000p  917.9673m  115.9737m  899.1990m  909.0696m 
   37.00000p  915.7800m  129.2820m  896.4427m  906.8372m 
   38.00000p  913.5928m  142.5903m  893.6863m  904.6049m 
   39.00000p  911.4055m  155.8986m  890.9300m  902.3725m 
   40.00000p  909.2182m  169.2070m  888.1737m  900.1402m 
   41.00000p  906.8121m  183.8338m  885.3292m  897.7466m 
   42.00000p  903.7123m  202.6387m  882.2057m  894.8418m 
   43.00000p  900.6126m  221.4436m  879.0822m  891.9371m 
   44.00000p  897.5128m  240.2485m  875.9587m  889.0323m 
   45.00000p  894.4131m  259.0534m  872.8351m  886.1276m 
   46.00000p  891.3133m  277.8583m  869.7116m  883.2229m 
   47.00000p  888.2135m  296.6632m  866.5881m  880.3181m 
   48.00000p  885.1138m  315.4681m  863.4645m  877.4134m 
   49.00000p  882.0140m  334.2730m  860.3410m  874.5086m 
   50.00000p  878.9143m  353.0779m  857.2175m  871.6039m 
   51.00000p  877.6623m  371.9587m  858.3499m  870.5479m 
   52.00000p  876.4103m  390.8395m  859.4823m  869.4918m 
   53.00000p  875.1584m  409.7204m  860.6147m  868.4358m 
   54.00000p  873.9064m  428.6012m  861.7471m  867.3798m 
   55.00000p  872.6545m  447.4820m  862.8795m  866.3238m 
   56.00000p  871.6853m  467.6415m  864.1822m  865.5787m 
   57.00000p  871.2458m  489.3821m  865.8408m  865.4005m 
   58.00000p  871.4310m  512.9670m  867.9206m  865.8909m 
   59.00000p  871.6163m  536.5518m  870.0003m  866.3813m 
   60.00000p  871.8015m  560.1367m  872.0800m  866.8717m 
   61.00000p  871.9867m  583.7215m  874.1597m  867.3621m 
   62.00000p  873.1368m  607.0499m  876.7867m  868.8038m 
   63.00000p  874.8559m  630.2272m  879.7364m  870.8066m 
   64.00000p  876.5750m  653.4044m  882.6861m  872.8094m 
   65.00000p  878.2941m  676.5816m  885.6358m  874.8122m 
   66.00000p  880.0131m  699.7588m  888.5855m  876.8149m 
   67.00000p  881.8927m  721.9203m  891.5870m  878.9584m 
   68.00000p  884.6350m  738.6227m  894.8671m  881.8583m 
   69.00000p  887.3772m  755.3251m  898.1472m  884.7581m 
   70.00000p  890.1195m  772.0275m  901.4273m  887.6580m 
   71.00000p  892.8618m  788.7299m  904.7075m  890.5579m 
   72.00000p  895.6040m  805.4323m  907.9876m  893.4577m 
   73.00000p  898.4211m  820.6818m  911.2352m  896.4181m 
   74.00000p  901.5174m  830.5105m  914.3618m  899.6046m 
   75.00000p  904.6136m  840.3392m  917.4883m  902.7910m 
   76.00000p  907.7098m  850.1678m  920.6149m  905.9775m 
   77.00000p  910.8061m  859.9965m  923.7414m  909.1639m 
   78.00000p  913.9023m  869.8252m  926.8679m  912.3503m 
   79.00000p  916.9985m  879.6539m  929.9945m  915.5368m 
   80.00000p  920.0733m  889.1847m  933.0789m  918.6989m 
   81.00000p  922.8295m  894.2948m  935.5383m  921.5002m 
   82.00000p  925.5857m  899.4050m  937.9977m  924.3014m 
   83.00000p  928.3419m  904.5151m  940.4571m  927.1027m 
   84.00000p  931.0981m  909.6252m  942.9165m  929.9039m 
   85.00000p  933.8543m  914.7353m  945.3759m  932.7051m 
   86.00000p  936.6105m  919.8454m  947.8354m  935.5064m 
   87.00000p  939.3667m  924.9555m  950.2948m  938.3076m 
   88.00000p  942.1229m  930.0657m  952.7542m  941.1089m 
   89.00000p  944.8791m  935.1758m  955.2136m  943.9101m 
   90.00000p  947.6353m  940.2859m  957.6730m  946.7114m 
   91.00000p  949.9976m  944.0902m  959.7168m  949.1120m 
   92.00000p  951.9527m  946.5445m  961.3310m  951.0983m 
   93.00000p  953.9078m  948.9988m  962.9453m  953.0847m 
   94.00000p  955.8628m  951.4532m  964.5595m  955.0711m 
   95.00000p  957.8179m  953.9075m  966.1737m  957.0575m 
   96.00000p  959.7730m  956.3618m  967.7880m  959.0438m 
   97.00000p  961.7281m  958.8161m  969.4022m  961.0302m 
   98.00000p  963.6832m  961.2704m  971.0164m  963.0166m 
   99.00000p  965.6383m  963.7248m  972.6307m  965.0030m 
  100.00000p  967.5934m  966.1791m  974.2449m  966.9893m 
  101.00000p  969.5485m  968.6334m  975.8591m  968.9757m 
  102.00000p  970.9989m  970.3198m  977.0368m  970.4493m 
  103.00000p  972.1209m  971.5063m  977.9303m  971.5890m 
  104.00000p  973.2428m  972.6928m  978.8238m  972.7288m 
  105.00000p  974.3648m  973.8793m  979.7174m  973.8685m 
  106.00000p  975.4867m  975.0658m  980.6109m  975.0083m 
  107.00000p  976.6087m  976.2523m  981.5044m  976.1480m 
  108.00000p  977.7307m  977.4388m  982.3979m  977.2878m 
  109.00000p  978.8526m  978.6253m  983.2914m  978.4275m 
  110.00000p  979.9746m  979.8118m  984.1849m  979.5673m 
  111.00000p  981.0965m  980.9983m  985.0784m  980.7070m 
  112.00000p  982.2185m  982.1848m  985.9719m  981.8468m 
  113.00000p  983.3404m  983.3713m  986.8654m  982.9865m 
  114.00000p  984.4624m  984.5578m  987.7589m  984.1263m 
  115.00000p  985.5843m  985.7443m  988.6525m  985.2661m 
  116.00000p  986.3524m  986.5318m  989.2621m  986.0489m 
  117.00000p  986.8557m  987.0209m  989.6595m  986.5649m 
  118.00000p  987.3591m  987.5100m  990.0570m  987.0809m 
  119.00000p  987.8624m  987.9991m  990.4544m  987.5969m 
  120.00000p  988.3658m  988.4882m  990.8518m  988.1129m 
  121.00000p  988.8691m  988.9774m  991.2492m  988.6288m 
  122.00000p  989.3725m  989.4665m  991.6466m  989.1448m 
  123.00000p  989.8758m  989.9556m  992.0440m  989.6608m 
  124.00000p  990.3792m  990.4447m  992.4414m  990.1768m 
  125.00000p  990.8825m  990.9338m  992.8388m  990.6928m 
  126.00000p  991.3859m  991.4229m  993.2362m  991.2087m 
  127.00000p  991.8892m  991.9121m  993.6336m  991.7247m 
  128.00000p  992.3926m  992.4012m  994.0310m  992.2407m 
  129.00000p  992.8959m  992.8903m  994.4285m  992.7567m 
  130.00000p  993.3993m  993.3794m  994.8259m  993.2727m 
  131.00000p  993.9026m  993.8685m  995.2233m  993.7887m 
  132.00000p  994.4060m  994.3576m  995.6207m  994.3046m 
  133.00000p  994.9093m  994.8468m  996.0181m  994.8206m 
  134.00000p  995.0703m  995.0035m  996.1428m  994.9838m 
  135.00000p  995.2305m  995.1595m  996.2670m  995.1462m 
  136.00000p  995.3907m  995.3155m  996.3912m  995.3086m 
  137.00000p  995.5509m  995.4716m  996.5154m  995.4709m 
  138.00000p  995.7111m  995.6276m  996.6395m  995.6333m 
  139.00000p  995.8714m  995.7836m  996.7637m  995.7957m 
  140.00000p  996.0316m  995.9396m  996.8879m  995.9581m 
  141.00000p  996.1918m  996.0956m  997.0120m  996.1205m 
  142.00000p  996.3520m  996.2516m  997.1362m  996.2829m 
  143.00000p  996.5122m  996.4077m  997.2604m  996.4453m 
  144.00000p  996.6725m  996.5637m  997.3845m  996.6077m 
  145.00000p  996.8327m  996.7197m  997.5087m  996.7701m 
  146.00000p  996.9929m  996.8757m  997.6329m  996.9325m 
  147.00000p  997.1531m  997.0317m  997.7570m  997.0948m 
  148.00000p  997.3133m  997.1878m  997.8812m  997.2572m 
  149.00000p  997.4736m  997.3438m  998.0054m  997.4196m 
  150.00000p  997.6338m  997.4998m  998.1295m  997.5820m 
  151.00000p  997.7940m  997.6558m  998.2537m  997.7444m 
  152.00000p  997.9542m  997.8118m  998.3779m  997.9068m 
  153.00000p  998.1144m  997.9678m  998.5020m  998.0692m 
  154.00000p  998.2747m  998.1239m  998.6262m  998.2316m 
  155.00000p  998.4349m  998.2799m  998.7504m  998.3940m 
  156.00000p  998.5951m  998.4359m  998.8746m  998.5564m 
  157.00000p  998.6788m  998.5175m  998.9404m  998.6419m 
  158.00000p  998.7168m  998.5545m  998.9715m  998.6814m 
  159.00000p  998.7548m  998.5915m  999.0025m  998.7209m 
  160.00000p  998.7928m  998.6285m  999.0335m  998.7603m 
  161.00000p  998.8307m  998.6656m  999.0645m  998.7998m 
  162.00000p  998.8687m  998.7026m  999.0955m  998.8393m 
  163.00000p  998.9067m  998.7396m  999.1265m  998.8788m 
  164.00000p  998.9447m  998.7766m  999.1575m  998.9183m 
  165.00000p  998.9826m  998.8136m  999.1885m  998.9578m 
  166.00000p  999.0206m  998.8506m  999.2195m  998.9973m 
  167.00000p  999.0586m  998.8877m  999.2506m  999.0368m 
  168.00000p  999.0966m  998.9247m  999.2816m  999.0763m 
  169.00000p  999.1345m  998.9617m  999.3126m  999.1158m 
  170.00000p  999.1725m  998.9987m  999.3436m  999.1553m 
  171.00000p  999.2105m  999.0357m  999.3746m  999.1947m 
  172.00000p  999.2485m  999.0727m  999.4056m  999.2342m 
  173.00000p  999.2864m  999.1098m  999.4366m  999.2737m 
  174.00000p  999.3244m  999.1468m  999.4676m  999.3132m 
  175.00000p  999.3624m  999.1838m  999.4986m  999.3527m 
  176.00000p  999.4003m  999.2208m  999.5296m  999.3922m 
  177.00000p  999.4383m  999.2578m  999.5607m  999.4317m 
  178.00000p  999.4763m  999.2948m  999.5917m  999.4712m 
  179.00000p  999.5143m  999.3319m  999.6227m  999.5107m 
  180.00000p  999.5522m  999.3689m  999.6537m  999.5502m 
  181.00000p  999.5902m  999.4059m  999.6847m  999.5897m 
  182.00000p  999.6282m  999.4429m  999.7157m  999.6291m 
  183.00000p  999.6662m  999.4799m  999.7467m  999.6686m 
  184.00000p  999.7041m  999.5169m  999.7777m  999.7081m 
  185.00000p  999.7421m  999.5540m  999.8087m  999.7476m 
  186.00000p  999.7801m  999.5910m  999.8397m  999.7871m 
  187.00000p  999.8005m  999.6117m  999.8560m  999.8082m 
  188.00000p  999.8050m  999.6175m  999.8587m  999.8126m 
  189.00000p  999.8095m  999.6233m  999.8615m  999.8171m 
  190.00000p  999.8139m  999.6292m  999.8642m  999.8215m 
  191.00000p  999.8184m  999.6350m  999.8670m  999.8259m 
  192.00000p  999.8229m  999.6409m  999.8698m  999.8303m 
  193.00000p  999.8274m  999.6467m  999.8725m  999.8348m 
  194.00000p  999.8318m  999.6526m  999.8753m  999.8392m 
  195.00000p  999.8363m  999.6584m  999.8781m  999.8436m 
  196.00000p  999.8408m  999.6642m  999.8808m  999.8480m 
  197.00000p  999.8453m  999.6701m  999.8836m  999.8524m 
  198.00000p  999.8498m  999.6759m  999.8864m  999.8569m 
  199.00000p  999.8542m  999.6818m  999.8891m  999.8613m 
  200.00000p  999.8587m  999.6876m  999.8919m  999.8657m 
  201.00000p  999.8632m  999.6935m  999.8947m  999.8701m 
  202.00000p  999.8677m  999.6993m  999.8974m  999.8746m 
  203.00000p  999.8721m  999.7051m  999.9002m  999.8790m 
  204.00000p  999.8766m  999.7110m  999.9029m  999.8834m 
  205.00000p  999.8811m  999.7168m  999.9057m  999.8878m 
  206.00000p  999.8856m  999.7227m  999.9085m  999.8922m 
  207.00000p  999.8900m  999.7285m  999.9112m  999.8967m 
  208.00000p  999.8945m  999.7344m  999.9140m  999.9011m 
  209.00000p  999.8990m  999.7402m  999.9168m  999.9055m 
  210.00000p  999.9035m  999.7460m  999.9195m  999.9099m 
  211.00000p  999.9079m  999.7519m  999.9223m  999.9144m 
  212.00000p  999.9124m  999.7577m  999.9251m  999.9188m 
  213.00000p  999.9169m  999.7636m  999.9278m  999.9232m 
  214.00000p  999.9214m  999.7694m  999.9306m  999.9276m 
  215.00000p  999.9258m  999.7753m  999.9333m  999.9320m 
  216.00000p  999.9303m  999.7811m  999.9361m  999.9365m 
  217.00000p  999.9348m  999.7869m  999.9389m  999.9409m 
  218.00000p  999.9393m  999.7928m  999.9416m  999.9453m 
  219.00000p  999.9437m  999.7986m  999.9444m  999.9497m 
  220.00000p  999.9482m  999.8045m  999.9472m  999.9542m 
  221.00000p    1.0003     1.0002     1.0006     1.0003  
  222.00000p    1.0013     1.0013     1.0021     1.0012  
  223.00000p    1.0023     1.0023     1.0037     1.0020  
  224.00000p    1.0033     1.0034     1.0052     1.0029  
  225.00000p    1.0043     1.0044     1.0068     1.0038  
  226.00000p    1.0053     1.0055     1.0083     1.0046  
  227.00000p    1.0063     1.0065     1.0098     1.0055  
  228.00000p    1.0073     1.0076     1.0110     1.0065  
  229.00000p    1.0083     1.0087     1.0121     1.0075  
  230.00000p    1.0093     1.0097     1.0131     1.0085  
  231.00000p    1.0103     1.0107     1.0141     1.0095  
  232.00000p    1.0113     1.0118     1.0151     1.0105  
  233.00000p    1.0123     1.0128     1.0161     1.0115  
  234.00000p    1.0133     1.0139     1.0170     1.0126  
  235.00000p    1.0143     1.0149     1.0180     1.0136  
  236.00000p    1.0153     1.0160     1.0190     1.0146  
  237.00000p    1.0162     1.0163     1.0198     1.0154  
  238.00000p    1.0167     1.0147     1.0203     1.0157  
  239.00000p    1.0173     1.0132     1.0208     1.0159  
  240.00000p    1.0178     1.0116     1.0213     1.0162  
  241.00000p    1.0184     1.0100     1.0218     1.0164  
  242.00000p    1.0189     1.0085     1.0222     1.0167  
  243.00000p    1.0194     1.0069     1.0227     1.0169  
  244.00000p    1.0200     1.0053     1.0232     1.0172  
  245.00000p    1.0205     1.0038     1.0237     1.0174  
  246.00000p    1.0211     1.0022     1.0242     1.0176  
  247.00000p    1.0216     1.0006     1.0247     1.0179  
  248.00000p    1.0221   999.0705m    1.0251     1.0181  
  249.00000p    1.0227   997.5032m    1.0256     1.0184  
  250.00000p    1.0232   995.9358m    1.0261     1.0186  
  251.00000p    1.0238   994.3684m    1.0266     1.0189  
  252.00000p    1.0243   992.8010m    1.0271     1.0191  
  253.00000p    1.0248   991.2337m    1.0276     1.0193  
  254.00000p    1.0254   989.6663m    1.0280     1.0196  
  255.00000p    1.0259   988.0989m    1.0285     1.0198  
  256.00000p    1.0265   986.5315m    1.0290     1.0201  
  257.00000p    1.0270   984.9642m    1.0295     1.0203  
  258.00000p    1.0275   983.3968m    1.0300     1.0206  
  259.00000p    1.0276   976.4178m    1.0300     1.0200  
  260.00000p    1.0275   968.6745m    1.0300     1.0194  
  261.00000p    1.0274   960.9312m    1.0300     1.0187  
  262.00000p    1.0274   953.1879m    1.0300     1.0181  
  263.00000p    1.0273   945.4445m    1.0299     1.0174  
  264.00000p    1.0273   937.7012m    1.0299     1.0168  
  265.00000p    1.0271   929.6399m    1.0298     1.0160  
  266.00000p    1.0265   919.8617m    1.0290     1.0150  
  267.00000p    1.0259   910.0835m    1.0282     1.0139  
  268.00000p    1.0252   900.3053m    1.0274     1.0128  
  269.00000p    1.0246   890.5271m    1.0267     1.0117  
  270.00000p    1.0240   880.7489m    1.0259     1.0106  
  271.00000p    1.0229   871.7378m    1.0245     1.0093  
  272.00000p    1.0214   863.8774m    1.0222     1.0076  
  273.00000p    1.0198   856.0170m    1.0200     1.0059  
  274.00000p    1.0182   848.1567m    1.0177     1.0042  
  275.00000p    1.0166   840.2963m    1.0154     1.0025  
  276.00000p    1.0150   832.4638m    1.0133     1.0007  
  277.00000p    1.0134   824.8633m    1.0113   998.9340m 
  278.00000p    1.0119   817.5455m    1.0094   997.0994m 
  279.00000p    1.0103   810.2278m    1.0076   995.2649m 
  280.00000p    1.0087   802.9101m    1.0057   993.4303m 
  281.00000p    1.0072   795.7654m    1.0039   991.6079m 
  282.00000p    1.0058   789.0123m    1.0022   989.8127m 
  283.00000p    1.0043   782.2591m    1.0005   988.0175m 
  284.00000p    1.0029   775.5060m  998.8053m  986.2224m 
  285.00000p    1.0014   768.7528m  997.0975m  984.4272m 
  286.00000p  999.9526m  761.9996m  995.3897m  982.6320m 
  287.00000p  998.5590m  755.4375m  993.7644m  980.9574m 
  288.00000p  997.1680m  748.8840m  992.1427m  979.2880m 
  289.00000p  995.7769m  742.3304m  990.5211m  977.6187m 
  290.00000p  994.3859m  735.7768m  988.8995m  975.9494m 
  291.00000p  992.9948m  729.2233m  987.2779m  974.2801m 
  292.00000p  991.6038m  722.6697m  985.6562m  972.6108m 
  293.00000p  990.2138m  716.0964m  984.0619m  970.9795m 
  294.00000p  988.8248m  709.5042m  982.4938m  969.3847m 
  295.00000p  987.4359m  702.9121m  980.9256m  967.7899m 
  296.00000p  986.0469m  696.3199m  979.3575m  966.1951m 
  297.00000p  984.6579m  689.7277m  977.7893m  964.6003m 
  298.00000p  983.2690m  683.1356m  976.2212m  963.0055m 
  299.00000p  981.8800m  676.5434m  974.6530m  961.4107m 
  300.00000p  980.5019m  669.8970m  973.1026m  959.8348m 
  301.00000p  979.1570m  663.0847m  971.6062m  958.3165m 
  302.00000p  977.8120m  656.2724m  970.1099m  956.7982m 
  303.00000p  976.4671m  649.4601m  968.6136m  955.2800m 
  304.00000p  975.1222m  642.6478m  967.1173m  953.7617m 
  305.00000p  973.7773m  635.8355m  965.6210m  952.2434m 
  306.00000p  972.4323m  629.0232m  964.1247m  950.7251m 
  307.00000p  971.0874m  622.2109m  962.6284m  949.2069m 
  308.00000p  969.7425m  615.3986m  961.1321m  947.6886m 
  309.00000p  968.3976m  608.5863m  959.6357m  946.1703m 
  310.00000p  967.0984m  601.6898m  958.1871m  944.7007m 
  311.00000p  965.8318m  594.7332m  956.7724m  943.2657m 
  312.00000p  964.5652m  587.7766m  955.3578m  941.8307m 
  313.00000p  963.2986m  580.8200m  953.9431m  940.3957m 
  314.00000p  962.0320m  573.8634m  952.5285m  938.9607m 
  315.00000p  960.7654m  566.9068m  951.1138m  937.5257m 
  316.00000p  959.4988m  559.9502m  949.6992m  936.0907m 
  317.00000p  958.2323m  552.9936m  948.2845m  934.6557m 
  318.00000p  956.9657m  546.0370m  946.8699m  933.2207m 
  319.00000p  955.6991m  539.0804m  945.4552m  931.7857m 
  320.00000p  954.4325m  532.1238m  944.0406m  930.3507m 
  321.00000p  953.1659m  525.1671m  942.6259m  928.9157m 
  322.00000p  951.8993m  518.2105m  941.2113m  927.4807m 
  323.00000p  950.6327m  511.2539m  939.7966m  926.0457m 
  324.00000p  949.4129m  505.0961m  938.4334m  924.6633m 
  325.00000p  948.2544m  499.9855m  937.1374m  923.3498m 
  326.00000p  947.0958m  494.8748m  935.8415m  922.0363m 
  327.00000p  945.9373m  489.7641m  934.5456m  920.7228m 
  328.00000p  944.7788m  484.6535m  933.2497m  919.4094m 
  329.00000p  943.6202m  479.5428m  931.9537m  918.0959m 
  330.00000p  942.4617m  474.4322m  930.6578m  916.7824m 
  331.00000p  941.3032m  469.3215m  929.3619m  915.4689m 
  332.00000p  940.1446m  464.2108m  928.0660m  914.1554m 
  333.00000p  938.9861m  459.1002m  926.7701m  912.8419m 
  334.00000p  937.8276m  453.9895m  925.4741m  911.5284m 
  335.00000p  936.6690m  448.8789m  924.1782m  910.2149m 
  336.00000p  935.5105m  443.7682m  922.8823m  908.9015m 
  337.00000p  934.3519m  438.6575m  921.5864m  907.5880m 
  338.00000p  933.1934m  433.5469m  920.2904m  906.2745m 
  339.00000p  932.0349m  428.4362m  918.9945m  904.9610m 
  340.00000p  930.8763m  423.3255m  917.6986m  903.6475m 
  341.00000p  929.7178m  418.2149m  916.4027m  902.3340m 
  342.00000p  928.5593m  413.1042m  915.1067m  901.0205m 
  343.00000p  927.4007m  407.9936m  913.8108m  899.7070m 
  344.00000p  926.2422m  402.8829m  912.5149m  898.3936m 
  345.00000p  925.0836m  397.7722m  911.2190m  897.0801m 
  346.00000p  923.9251m  392.6616m  909.9231m  895.7666m 
  347.00000p  922.8258m  388.7878m  908.6895m  894.5165m 
  348.00000p  921.7763m  385.9532m  907.5084m  893.3198m 
  349.00000p  920.7268m  383.1187m  906.3273m  892.1230m 
  350.00000p  919.6773m  380.2841m  905.1461m  890.9262m 
  351.00000p  918.6278m  377.4496m  903.9650m  889.7295m 
  352.00000p  917.5782m  374.6150m  902.7839m  888.5327m 
  353.00000p  916.5287m  371.7804m  901.6027m  887.3359m 
  354.00000p  915.4792m  368.9459m  900.4216m  886.1392m 
  355.00000p  914.4297m  366.1113m  899.2405m  884.9424m 
  356.00000p  913.3802m  363.2768m  898.0593m  883.7456m 
  357.00000p  912.3307m  360.4422m  896.8782m  882.5489m 
  358.00000p  911.2812m  357.6077m  895.6971m  881.3521m 
  359.00000p  910.2316m  354.7731m  894.5160m  880.1553m 
  360.00000p  909.1821m  351.9386m  893.3348m  878.9586m 
  361.00000p  908.1326m  349.1040m  892.1537m  877.7618m 
  362.00000p  907.0831m  346.2695m  890.9726m  876.5651m 
  363.00000p  906.0336m  343.4349m  889.7914m  875.3683m 
  364.00000p  904.9841m  340.6003m  888.6103m  874.1715m 
  365.00000p  903.9771m  337.9804m  887.4756m  873.0236m 
  366.00000p  903.0667m  335.8470m  886.4463m  871.9863m 
  367.00000p  902.1562m  333.7136m  885.4170m  870.9490m 
  368.00000p  901.2457m  331.5801m  884.3877m  869.9117m 
  369.00000p  900.3353m  329.4467m  883.3584m  868.8744m 
  370.00000p  899.4248m  327.3133m  882.3291m  867.8371m 
  371.00000p  898.5143m  325.1799m  881.2997m  866.7998m 
  372.00000p  897.6039m  323.0465m  880.2704m  865.7626m 
  373.00000p  896.6934m  320.9130m  879.2411m  864.7253m 
  374.00000p  895.7830m  318.7796m  878.2118m  863.6880m 
  375.00000p  894.8725m  316.6462m  877.1825m  862.6507m 
  376.00000p  893.9620m  314.5128m  876.1531m  861.6134m 
  377.00000p  893.0516m  312.3793m  875.1238m  860.5761m 
  378.00000p  892.1411m  310.2459m  874.0945m  859.5388m 
  379.00000p  891.2307m  308.1125m  873.0652m  858.5015m 
  380.00000p  890.3202m  305.9791m  872.0359m  857.4643m 
  381.00000p  889.4097m  303.8457m  871.0065m  856.4270m 
  382.00000p  888.4993m  301.7122m  869.9772m  855.3897m 
  383.00000p  887.5888m  299.5788m  868.9479m  854.3524m 
  384.00000p  886.6783m  297.4454m  867.9186m  853.3151m 
  385.00000p  885.7679m  295.3120m  866.8893m  852.2778m 
  386.00000p  884.8574m  293.1786m  865.8599m  851.2405m 
  387.00000p  883.9470m  291.0451m  864.8306m  850.2032m 
  388.00000p  883.0365m  288.9117m  863.8013m  849.1660m 
  389.00000p  882.1260m  286.7783m  862.7720m  848.1287m 
  390.00000p  881.2156m  284.6449m  861.7427m  847.0914m 
  391.00000p  880.3051m  282.5114m  860.7133m  846.0541m 
  392.00000p  879.3947m  280.3780m  859.6840m  845.0168m 
  393.00000p  878.4842m  278.2446m  858.6547m  843.9795m 
  394.00000p  877.5737m  276.1112m  857.6254m  842.9422m 
  395.00000p  876.6633m  273.9778m  856.5961m  841.9049m 
  396.00000p  875.7528m  271.8443m  855.5667m  840.8676m 
  397.00000p  874.8424m  269.7109m  854.5374m  839.8304m 
  398.00000p  873.9319m  267.5775m  853.5081m  838.7931m 
  399.00000p  873.0214m  265.4441m  852.4788m  837.7558m 
  400.00000p  872.1110m  263.3106m  851.4495m  836.7185m 
  401.00000p  871.2005m  261.1772m  850.4202m  835.6812m 
  402.00000p  870.2900m  259.0438m  849.3908m  834.6439m 
  403.00000p  869.3796m  256.9104m  848.3615m  833.6066m 
  404.00000p  868.4691m  254.7770m  847.3322m  832.5693m 
  405.00000p  867.5587m  252.6435m  846.3029m  831.5321m 
  406.00000p  866.6482m  250.5101m  845.2736m  830.4948m 
  407.00000p  865.7377m  248.3767m  844.2442m  829.4575m 
  408.00000p  864.8523m  246.2430m  843.2427m  828.4509m 
  409.00000p  864.0892m  244.1077m  842.3768m  827.5940m 
  410.00000p  863.3261m  241.9725m  841.5109m  826.7372m 
  411.00000p  862.5630m  239.8372m  840.6450m  825.8803m 
  412.00000p  861.7999m  237.7020m  839.7792m  825.0235m 
  413.00000p  861.0367m  235.5668m  838.9133m  824.1666m 
  414.00000p  860.2736m  233.4315m  838.0474m  823.3098m 
  415.00000p  859.5105m  231.2963m  837.1815m  822.4530m 
  416.00000p  858.7474m  229.1611m  836.3156m  821.5961m 
  417.00000p  857.9843m  227.0258m  835.4497m  820.7393m 
  418.00000p  857.2211m  224.8906m  834.5838m  819.8824m 
  419.00000p  856.4580m  222.7554m  833.7180m  819.0256m 
  420.00000p  855.6949m  220.6201m  832.8521m  818.1687m 
  421.00000p  854.9318m  218.4849m  831.9862m  817.3119m 
  422.00000p  854.1687m  216.3496m  831.1203m  816.4550m 
  423.00000p  853.4055m  214.2144m  830.2544m  815.5982m 
  424.00000p  852.6424m  212.0792m  829.3885m  814.7413m 
  425.00000p  851.8793m  209.9439m  828.5226m  813.8845m 
  426.00000p  851.1162m  207.8087m  827.6568m  813.0276m 
  427.00000p  850.3531m  205.6735m  826.7909m  812.1708m 
  428.00000p  849.6687m  203.6668m  826.0271m  811.4499m 
  429.00000p  849.1119m  201.8687m  825.4289m  810.9493m 
  430.00000p  848.5551m  200.0706m  824.8307m  810.4487m 
  431.00000p  847.9983m  198.2724m  824.2325m  809.9481m 
  432.00000p  847.4416m  196.4743m  823.6342m  809.4475m 
  433.00000p  846.8848m  194.6761m  823.0360m  808.9470m 
  434.00000p  846.3280m  192.8780m  822.4378m  808.4464m 
  435.00000p  845.7713m  191.0799m  821.8396m  807.9458m 
  436.00000p  845.2145m  189.2817m  821.2414m  807.4452m 
  437.00000p  844.6577m  187.4836m  820.6432m  806.9446m 
  438.00000p  844.1010m  185.6855m  820.0450m  806.4440m 
  439.00000p  843.5442m  183.8873m  819.4467m  805.9435m 
  440.00000p  842.9874m  182.0892m  818.8485m  805.4429m 
  441.00000p  842.4306m  180.2910m  818.2503m  804.9423m 
  442.00000p  841.8739m  178.4929m  817.6521m  804.4417m 
  443.00000p  841.3171m  176.6948m  817.0539m  803.9411m 
  444.00000p  840.7603m  174.8966m  816.4557m  803.4405m 
  445.00000p  840.2036m  173.0985m  815.8574m  802.9400m 
  446.00000p  839.6468m  171.3003m  815.2592m  802.4394m 
  447.00000p  839.0900m  169.5022m  814.6610m  801.9388m 
  448.00000p  838.5332m  167.7041m  814.0628m  801.4382m 
  449.00000p  837.9765m  165.9059m  813.4646m  800.9376m 
  450.00000p  837.4197m  164.1078m  812.8664m  800.4370m 
  451.00000p  836.8629m  162.3097m  812.2682m  799.9365m 
  452.00000p  836.3062m  160.5115m  811.6699m  799.4359m 
  453.00000p  835.7494m  158.7134m  811.0717m  798.9353m 
  454.00000p  835.1926m  156.9152m  810.4735m  798.4347m 
  455.00000p  835.0094m  155.6095m  810.3599m  798.5419m 
  456.00000p  834.8828m  154.3783m  810.3197m  798.7411m 
  457.00000p  834.7562m  153.1470m  810.2796m  798.9403m 
  458.00000p  834.6295m  151.9158m  810.2394m  799.1395m 
  459.00000p  834.5029m  150.6846m  810.1992m  799.3387m 
  460.00000p  834.3763m  149.4534m  810.1590m  799.5379m 
  461.00000p  834.2496m  148.2222m  810.1188m  799.7371m 
  462.00000p  834.1230m  146.9910m  810.0786m  799.9363m 
  463.00000p  833.9964m  145.7598m  810.0385m  800.1355m 
  464.00000p  833.8698m  144.5286m  809.9983m  800.3347m 
  465.00000p  833.7431m  143.2974m  809.9581m  800.5339m 
  466.00000p  833.6165m  142.0662m  809.9179m  800.7331m 
  467.00000p  833.4899m  140.8350m  809.8777m  800.9323m 
  468.00000p  833.3633m  139.6038m  809.8376m  801.1315m 
  469.00000p  833.2366m  138.3726m  809.7974m  801.3307m 
  470.00000p  833.1100m  137.1414m  809.7572m  801.5299m 
  471.00000p  832.9834m  135.9102m  809.7170m  801.7291m 
  472.00000p  832.8568m  134.6790m  809.6768m  801.9283m 
  473.00000p  832.7301m  133.4478m  809.6366m  802.1275m 
  474.00000p  832.6035m  132.2165m  809.5965m  802.3267m 
  475.00000p  832.4769m  130.9853m  809.5563m  802.5259m 
  476.00000p  832.3652m  129.7606m  809.5330m  802.7395m 
  477.00000p  832.7252m  128.7388m  810.0407m  803.4040m 
  478.00000p  833.0851m  127.7170m  810.5485m  804.0686m 
  479.00000p  833.4451m  126.6951m  811.0563m  804.7331m 
  480.00000p  833.8051m  125.6733m  811.5640m  805.3977m 
  481.00000p  834.1650m  124.6515m  812.0718m  806.0622m 
  482.00000p  834.5250m  123.6297m  812.5795m  806.7268m 
  483.00000p  834.8849m  122.6079m  813.0873m  807.3914m 
  484.00000p  835.2449m  121.5861m  813.5951m  808.0559m 
  485.00000p  835.6048m  120.5643m  814.1028m  808.7205m 
  486.00000p  835.9648m  119.5425m  814.6106m  809.3850m 
  487.00000p  836.3248m  118.5206m  815.1183m  810.0496m 
  488.00000p  836.6847m  117.4988m  815.6261m  810.7141m 
  489.00000p  837.0447m  116.4770m  816.1339m  811.3787m 
  490.00000p  837.4046m  115.4552m  816.6416m  812.0432m 
  491.00000p  837.7646m  114.4334m  817.1494m  812.7078m 
  492.00000p  838.1245m  113.4116m  817.6571m  813.3723m 
  493.00000p  838.4845m  112.3898m  818.1649m  814.0369m 
  494.00000p  838.8444m  111.3679m  818.6727m  814.7014m 
  495.00000p  839.2044m  110.3461m  819.1804m  815.3660m 
  496.00000p  839.5644m  109.3243m  819.6882m  816.0306m 
  497.00000p  839.9243m  108.3025m  820.1959m  816.6951m 
  498.00000p  840.4717m  107.3036m  820.8498m  817.3905m 
  499.00000p  841.0618m  106.3098m  821.5369m  818.0929m 
  500.00000p  841.6520m  105.3161m  822.2241m  818.7953m 
  501.00000p  842.2421m  104.3224m  822.9112m  819.4977m 
  502.00000p  842.8323m  103.3286m  823.5984m  820.2001m 
  503.00000p  843.4224m  102.3349m  824.2855m  820.9025m 
  504.00000p  844.0125m  101.3412m  824.9727m  821.6049m 
  505.00000p  844.6027m  100.3475m  825.6598m  822.3073m 
  506.00000p  845.1928m   99.3537m  826.3470m  823.0097m 
  507.00000p  845.7830m   98.3600m  827.0341m  823.7121m 
  508.00000p  846.3731m   97.3663m  827.7213m  824.4146m 
  509.00000p  846.9632m   96.3726m  828.4084m  825.1170m 
  510.00000p  847.5534m   95.3788m  829.0956m  825.8194m 
  511.00000p  848.1435m   94.3851m  829.7827m  826.5218m 
  512.00000p  848.7337m   93.3914m  830.4699m  827.2242m 
  513.00000p  849.3238m   92.3976m  831.1570m  827.9266m 
  514.00000p  849.9139m   91.4039m  831.8442m  828.6290m 
  515.00000p  850.5041m   90.4102m  832.5313m  829.3314m 
  516.00000p  851.0942m   89.4165m  833.2185m  830.0338m 
  517.00000p  851.6844m   88.4227m  833.9056m  830.7362m 
  518.00000p  852.2745m   87.4290m  834.5928m  831.4386m 
  519.00000p  852.8561m   86.3363m  835.2538m  832.1122m 
  520.00000p  853.4351m   85.2135m  835.9070m  832.7770m 
  521.00000p  854.0141m   84.0908m  836.5602m  833.4418m 
  522.00000p  854.5931m   82.9680m  837.2133m  834.1065m 
  523.00000p  855.1721m   81.8452m  837.8665m  834.7713m 
  524.00000p  855.7511m   80.7225m  838.5196m  835.4361m 
  525.00000p  856.3301m   79.5997m  839.1728m  836.1009m 
  526.00000p  856.9091m   78.4769m  839.8260m  836.7657m 
  527.00000p  857.4881m   77.3541m  840.4791m  837.4305m 
  528.00000p  858.0671m   76.2314m  841.1323m  838.0953m 
  529.00000p  858.6462m   75.1086m  841.7854m  838.7601m 
  530.00000p  859.2252m   73.9858m  842.4386m  839.4249m 
  531.00000p  859.8042m   72.8631m  843.0917m  840.0897m 
  532.00000p  860.3804m   71.7513m  843.7422m  840.7516m 
  533.00000p  860.9238m   70.7716m  844.3602m  841.3791m 
  534.00000p  861.4671m   69.7919m  844.9782m  842.0066m 
  535.00000p  862.0105m   68.8123m  845.5962m  842.6341m 
  536.00000p  862.5538m   67.8326m  846.2142m  843.2616m 
  537.00000p  863.0972m   66.8529m  846.8321m  843.8891m 
  538.00000p  863.6405m   65.8733m  847.4501m  844.5166m 
  539.00000p  864.1839m   64.8936m  848.0681m  845.1441m 
  540.00000p  864.7272m   63.9139m  848.6861m  845.7716m 
  541.00000p  865.2706m   62.9342m  849.3041m  846.3991m 
  542.00000p  865.8139m   61.9546m  849.9221m  847.0266m 
  543.00000p  866.3573m   60.9749m  850.5401m  847.6541m 
  544.00000p  866.9006m   59.9952m  851.1581m  848.2816m 
  545.00000p  867.4440m   59.0155m  851.7760m  848.9091m 
  546.00000p  867.9873m   58.0359m  852.3940m  849.5366m 
  547.00000p  868.5307m   57.0562m  853.0120m  850.1641m 
  548.00000p  869.0740m   56.0765m  853.6300m  850.7916m 
  549.00000p  869.6174m   55.0968m  854.2480m  851.4191m 
  550.00000p  870.1605m   54.1190m  854.8657m  852.0463m 
  551.00000p  870.6791m   53.3417m  855.4518m  852.6439m 
  552.00000p  871.1977m   52.5643m  856.0380m  853.2415m 
  553.00000p  871.7162m   51.7869m  856.6241m  853.8390m 
  554.00000p  872.2348m   51.0095m  857.2103m  854.4366m 
  555.00000p  872.7534m   50.2321m  857.7964m  855.0342m 
  556.00000p  873.2719m   49.4548m  858.3826m  855.6318m 
  557.00000p  873.7905m   48.6774m  858.9687m  856.2294m 
  558.00000p  874.3091m   47.9000m  859.5549m  856.8270m 
  559.00000p  874.8276m   47.1226m  860.1410m  857.4246m 
  560.00000p  875.3462m   46.3452m  860.7272m  858.0221m 
  561.00000p  875.8648m   45.5679m  861.3133m  858.6197m 
  562.00000p  876.3749m   44.8493m  861.8898m  859.2069m 
  563.00000p  876.8666m   44.2586m  862.4453m  859.7713m 
  564.00000p  877.3583m   43.6679m  863.0008m  860.3358m 
  565.00000p  877.8499m   43.0771m  863.5563m  860.9002m 
  566.00000p  878.3416m   42.4864m  864.1118m  861.4647m 
  567.00000p  878.8333m   41.8957m  864.6673m  862.0291m 
  568.00000p  879.3250m   41.3050m  865.2228m  862.5936m 
  569.00000p  879.8167m   40.7143m  865.7783m  863.1580m 
  570.00000p  880.3084m   40.1235m  866.3338m  863.7224m 
  571.00000p  880.8001m   39.5328m  866.8893m  864.2869m 
  572.00000p  881.2918m   38.9421m  867.4448m  864.8513m 
  573.00000p  881.7835m   38.3514m  868.0003m  865.4158m 
  574.00000p  882.2751m   37.7607m  868.5557m  865.9802m 
  575.00000p  882.7668m   37.1699m  869.1112m  866.5447m 
  576.00000p  883.2585m   36.5792m  869.6667m  867.1091m 
  577.00000p  883.7502m   35.9885m  870.2222m  867.6736m 
  578.00000p  884.2419m   35.3978m  870.7777m  868.2380m 
  579.00000p  884.7336m   34.8071m  871.3332m  868.8025m 
  580.00000p  885.2038m   34.3338m  871.8635m  869.3426m 
  581.00000p  885.6686m   33.8905m  872.3874m  869.8767m 
  582.00000p  886.1333m   33.4471m  872.9113m  870.4107m 
  583.00000p  886.5981m   33.0038m  873.4352m  870.9447m 
  584.00000p  887.0629m   32.5604m  873.9591m  871.4787m 
  585.00000p  887.5276m   32.1171m  874.4830m  872.0127m 
  586.00000p  887.9924m   31.6737m  875.0069m  872.5467m 
  587.00000p  888.4572m   31.2304m  875.5308m  873.0807m 
  588.00000p  888.9219m   30.7870m  876.0546m  873.6147m 
  589.00000p  889.3867m   30.3437m  876.5785m  874.1487m 
  590.00000p  889.8514m   29.9003m  877.1024m  874.6827m 
  591.00000p  890.3162m   29.4570m  877.6263m  875.2167m 
  592.00000p  890.7810m   29.0136m  878.1502m  875.7507m 
  593.00000p  891.2457m   28.5703m  878.6741m  876.2847m 
  594.00000p  891.6985m   28.1782m  879.1840m  876.8040m 
  595.00000p  892.1328m   27.8649m  879.6724m  877.3009m 
  596.00000p  892.5672m   27.5515m  880.1609m  877.7977m 
  597.00000p  893.0015m   27.2381m  880.6494m  878.2946m 
  598.00000p  893.4359m   26.9248m  881.1378m  878.7914m 
  599.00000p  893.8702m   26.6114m  881.6263m  879.2883m 
  600.00000p  894.3045m   26.2980m  882.1148m  879.7851m 
  601.00000p  894.7389m   25.9847m  882.6032m  880.2819m 
  602.00000p  895.1732m   25.6713m  883.0917m  880.7788m 
  603.00000p  895.6076m   25.3579m  883.5802m  881.2756m 
  604.00000p  896.0419m   25.0445m  884.0686m  881.7725m 
  605.00000p  896.4763m   24.7312m  884.5571m  882.2693m 
  606.00000p  896.9106m   24.4178m  885.0456m  882.7662m 
  607.00000p  897.3450m   24.1044m  885.5340m  883.2630m 
  608.00000p  897.7793m   23.7911m  886.0225m  883.7599m 
  609.00000p  898.2136m   23.4777m  886.5110m  884.2567m 
  610.00000p  898.6480m   23.1643m  886.9994m  884.7536m 
  611.00000p  899.0823m   22.8509m  887.4879m  885.2504m 
  612.00000p  899.5167m   22.5376m  887.9763m  885.7472m 
  613.00000p  899.9510m   22.2242m  888.4648m  886.2441m 
  614.00000p  900.3854m   21.9108m  888.9533m  886.7409m 
  615.00000p  900.8197m   21.5975m  889.4417m  887.2378m 
  616.00000p  901.2540m   21.2841m  889.9302m  887.7346m 
  617.00000p  901.6522m   21.0752m  890.3772m  888.1901m 
  618.00000p  902.0479m   20.8732m  890.8214m  888.6429m 
  619.00000p  902.4436m   20.6713m  891.2656m  889.0956m 
  620.00000p  902.8393m   20.4694m  891.7098m  889.5483m 
  621.00000p  903.2350m   20.2674m  892.1540m  890.0011m 
  622.00000p  903.6307m   20.0655m  892.5982m  890.4538m 
  623.00000p  904.0264m   19.8636m  893.0424m  890.9065m 
  624.00000p  904.4221m   19.6616m  893.4866m  891.3593m 
  625.00000p  904.8178m   19.4597m  893.9308m  891.8120m 
  626.00000p  905.2135m   19.2578m  894.3751m  892.2647m 
  627.00000p  905.6091m   19.0559m  894.8193m  892.7175m 
  628.00000p  906.0048m   18.8539m  895.2635m  893.1702m 
  629.00000p  906.4005m   18.6520m  895.7077m  893.6229m 
  630.00000p  906.7962m   18.4501m  896.1519m  894.0757m 
  631.00000p  907.1919m   18.2481m  896.5961m  894.5284m 
  632.00000p  907.5876m   18.0462m  897.0403m  894.9812m 
  633.00000p  907.9833m   17.8443m  897.4845m  895.4339m 
  634.00000p  908.3790m   17.6423m  897.9287m  895.8866m 
  635.00000p  908.7747m   17.4404m  898.3729m  896.3394m 
  636.00000p  909.1704m   17.2385m  898.8171m  896.7921m 
  637.00000p  909.5661m   17.0366m  899.2613m  897.2448m 
  638.00000p  909.9618m   16.8346m  899.7055m  897.6976m 
  639.00000p  910.3575m   16.6327m  900.1497m  898.1503m 
  640.00000p  910.7532m   16.4308m  900.5939m  898.6030m 
  641.00000p  911.1489m   16.2288m  901.0381m  899.0558m 
  642.00000p  911.5446m   16.0269m  901.4824m  899.5085m 
  643.00000p  911.9403m   15.8250m  901.9266m  899.9612m 
  644.00000p  912.3039m   15.6821m  902.3340m  900.3762m 
  645.00000p  912.6506m   15.5702m  902.7221m  900.7715m 
  646.00000p  912.9973m   15.4583m  903.1102m  901.1667m 
  647.00000p  913.3441m   15.3464m  903.4983m  901.5619m 
  648.00000p  913.6908m   15.2345m  903.8864m  901.9572m 
  649.00000p  914.0375m   15.1226m  904.2745m  902.3524m 
  650.00000p  914.3842m   15.0106m  904.6626m  902.7476m 
  651.00000p  914.7310m   14.8987m  905.0507m  903.1429m 
  652.00000p  915.0777m   14.7868m  905.4388m  903.5381m 
  653.00000p  915.4244m   14.6749m  905.8269m  903.9333m 
  654.00000p  915.7711m   14.5630m  906.2150m  904.3286m 
  655.00000p  916.1179m   14.4511m  906.6031m  904.7238m 
  656.00000p  916.4646m   14.3392m  906.9912m  905.1190m 
  657.00000p  916.8113m   14.2273m  907.3793m  905.5143m 
  658.00000p  917.1580m   14.1153m  907.7674m  905.9095m 
  659.00000p  917.5048m   14.0034m  908.1555m  906.3047m 
  660.00000p  917.8515m   13.8915m  908.5436m  906.7000m 
  661.00000p  918.1982m   13.7796m  908.9317m  907.0952m 
  662.00000p  918.5450m   13.6677m  909.3198m  907.4904m 
  663.00000p  918.8917m   13.5558m  909.7079m  907.8857m 
  664.00000p  919.2384m   13.4439m  910.0961m  908.2809m 
  665.00000p  919.5851m   13.3319m  910.4842m  908.6761m 
  666.00000p  919.9319m   13.2200m  910.8723m  909.0714m 
  667.00000p  920.2786m   13.1081m  911.2604m  909.4666m 
  668.00000p  920.6253m   12.9962m  911.6485m  909.8618m 
  669.00000p  920.9720m   12.8843m  912.0366m  910.2571m 
  670.00000p  921.3188m   12.7724m  912.4247m  910.6523m 
  671.00000p  921.6655m   12.6605m  912.8128m  911.0475m 
  672.00000p  922.0122m   12.5486m  913.2009m  911.4428m 
  673.00000p  922.3589m   12.4366m  913.5890m  911.8380m 
  674.00000p  922.7057m   12.3247m  913.9771m  912.2332m 
  675.00000p  923.0524m   12.2128m  914.3652m  912.6285m 
  676.00000p  923.3991m   12.1009m  914.7533m  913.0237m 
  677.00000p  923.7459m   11.9890m  915.1414m  913.4189m 
  678.00000p  924.0926m   11.8771m  915.5295m  913.8142m 
  679.00000p  924.4393m   11.7652m  915.9176m  914.2094m 
  680.00000p  924.7860m   11.6533m  916.3057m  914.6046m 
  681.00000p  925.1328m   11.5413m  916.6938m  914.9999m 
  682.00000p  925.4795m   11.4294m  917.0819m  915.3951m 
  683.00000p  925.8262m   11.3175m  917.4700m  915.7903m 
  684.00000p  926.1729m   11.2056m  917.8582m  916.1856m 
  685.00000p  926.5081m   11.1044m  918.2332m  916.5676m 
  686.00000p  926.7895m   11.0531m  918.5475m  916.8881m 
  687.00000p  927.0708m   11.0018m  918.8617m  917.2086m 
  688.00000p  927.3522m   10.9504m  919.1760m  917.5291m 
  689.00000p  927.6336m   10.8991m  919.4903m  917.8497m 
  690.00000p  927.9150m   10.8478m  919.8046m  918.1702m 
  691.00000p  928.1963m   10.7965m  920.1188m  918.4907m 
  692.00000p  928.4777m   10.7451m  920.4331m  918.8112m 
  693.00000p  928.7591m   10.6938m  920.7474m  919.1318m 
  694.00000p  929.0405m   10.6425m  921.0617m  919.4523m 
  695.00000p  929.3218m   10.5911m  921.3759m  919.7728m 
  696.00000p  929.6032m   10.5398m  921.6902m  920.0933m 
  697.00000p  929.8846m   10.4885m  922.0045m  920.4139m 
  698.00000p  930.1660m   10.4372m  922.3188m  920.7344m 
  699.00000p  930.4474m   10.3858m  922.6330m  921.0549m 
  700.00000p  930.7287m   10.3345m  922.9473m  921.3754m 
  701.00000p  931.0101m   10.2832m  923.2616m  921.6960m 
  702.00000p  931.2915m   10.2318m  923.5759m  922.0165m 
  703.00000p  931.5729m   10.1805m  923.8901m  922.3370m 
  704.00000p  931.8542m   10.1292m  924.2044m  922.6575m 
  705.00000p  932.1356m   10.0779m  924.5187m  922.9781m 
  706.00000p  932.4170m   10.0265m  924.8330m  923.2986m 
  707.00000p  932.6984m    9.9752m  925.1472m  923.6191m 
  708.00000p  932.9797m    9.9239m  925.4615m  923.9396m 
  709.00000p  933.2611m    9.8725m  925.7758m  924.2602m 
  710.00000p  933.5425m    9.8212m  926.0901m  924.5807m 
  711.00000p  933.8239m    9.7699m  926.4043m  924.9012m 
  712.00000p  934.1052m    9.7186m  926.7186m  925.2217m 
  713.00000p  934.3866m    9.6672m  927.0329m  925.5423m 
  714.00000p  934.6680m    9.6159m  927.3472m  925.8628m 
  715.00000p  934.9494m    9.5646m  927.6615m  926.1833m 
  716.00000p  935.2307m    9.5132m  927.9757m  926.5038m 
  717.00000p  935.5121m    9.4619m  928.2900m  926.8244m 
  718.00000p  935.7935m    9.4106m  928.6043m  927.1449m 
  719.00000p  936.0749m    9.3593m  928.9186m  927.4654m 
  720.00000p  936.3562m    9.3079m  929.2328m  927.7859m 
  721.00000p  936.6376m    9.2566m  929.5471m  928.1065m 
  722.00000p  936.9190m    9.2053m  929.8614m  928.4270m 
  723.00000p  937.2004m    9.1539m  930.1757m  928.7475m 
  724.00000p  937.4818m    9.1026m  930.4899m  929.0680m 
  725.00000p  937.7631m    9.0513m  930.8042m  929.3886m 
  726.00000p  938.0445m    9.0000m  931.1185m  929.7091m 
  727.00000p  938.3259m    8.9486m  931.4328m  930.0296m 
  728.00000p  938.6073m    8.8973m  931.7470m  930.3501m 
  729.00000p  938.8886m    8.8460m  932.0613m  930.6707m 
  730.00000p  939.1700m    8.7946m  932.3756m  930.9912m 
  731.00000p  939.4514m    8.7433m  932.6899m  931.3117m 
  732.00000p  939.7328m    8.6920m  933.0041m  931.6322m 
  733.00000p  940.0141m    8.6407m  933.3184m  931.9528m 
  734.00000p  940.2955m    8.5893m  933.6327m  932.2733m 
  735.00000p  940.5769m    8.5380m  933.9470m  932.5938m 
  736.00000p  940.8583m    8.4867m  934.2612m  932.9143m 
  737.00000p  941.1396m    8.4353m  934.5755m  933.2349m 
  738.00000p  941.4210m    8.3840m  934.8898m  933.5554m 
  739.00000p  941.7024m    8.3327m  935.2041m  933.8759m 
  740.00000p  941.9838m    8.2814m  935.5183m  934.1964m 
  741.00000p  942.2651m    8.2300m  935.8326m  934.5170m 
  742.00000p  942.5465m    8.1787m  936.1469m  934.8375m 
  743.00000p  942.8279m    8.1274m  936.4612m  935.1580m 
  744.00000p  943.1093m    8.0760m  936.7755m  935.4785m 
  745.00000p  943.3906m    8.0247m  937.0897m  935.7991m 
  746.00000p  943.6720m    7.9734m  937.4040m  936.1196m 
  747.00000p  943.9534m    7.9221m  937.7183m  936.4401m 
  748.00000p  944.2348m    7.8707m  938.0326m  936.7606m 
  749.00000p  944.5061m    7.8238m  938.3355m  937.0696m 
  750.00000p  944.7179m    7.8026m  938.5716m  937.3104m 
  751.00000p  944.9297m    7.7814m  938.8078m  937.5512m 
  752.00000p  945.1415m    7.7603m  939.0439m  937.7920m 
  753.00000p  945.3534m    7.7391m  939.2800m  938.0327m 
  754.00000p  945.5652m    7.7179m  939.5162m  938.2735m 
  755.00000p  945.7770m    7.6968m  939.7523m  938.5143m 
  756.00000p  945.9889m    7.6756m  939.9885m  938.7551m 
  757.00000p  946.2007m    7.6544m  940.2246m  938.9959m 
  758.00000p  946.4125m    7.6333m  940.4607m  939.2367m 
  759.00000p  946.6243m    7.6121m  940.6969m  939.4775m 
  760.00000p  946.8362m    7.5909m  940.9330m  939.7183m 
  761.00000p  947.0480m    7.5698m  941.1691m  939.9591m 
  762.00000p  947.2598m    7.5486m  941.4053m  940.1998m 
  763.00000p  947.4717m    7.5274m  941.6414m  940.4406m 
  764.00000p  947.6835m    7.5063m  941.8775m  940.6814m 
  765.00000p  947.8953m    7.4851m  942.1137m  940.9222m 
  766.00000p  948.1071m    7.4639m  942.3498m  941.1630m 
  767.00000p  948.3190m    7.4428m  942.5859m  941.4038m 
  768.00000p  948.5308m    7.4216m  942.8221m  941.6446m 
  769.00000p  948.7426m    7.4005m  943.0582m  941.8854m 
  770.00000p  948.9544m    7.3793m  943.2944m  942.1261m 
  771.00000p  949.1663m    7.3581m  943.5305m  942.3669m 
  772.00000p  949.3781m    7.3370m  943.7666m  942.6077m 
  773.00000p  949.5899m    7.3158m  944.0028m  942.8485m 
  774.00000p  949.8018m    7.2946m  944.2389m  943.0893m 
  775.00000p  950.0136m    7.2735m  944.4750m  943.3301m 
  776.00000p  950.2254m    7.2523m  944.7112m  943.5709m 
  777.00000p  950.4372m    7.2311m  944.9473m  943.8117m 
  778.00000p  950.6491m    7.2100m  945.1834m  944.0524m 
  779.00000p  950.8609m    7.1888m  945.4196m  944.2932m 
  780.00000p  951.0727m    7.1676m  945.6557m  944.5340m 
  781.00000p  951.2846m    7.1465m  945.8919m  944.7748m 
  782.00000p  951.4964m    7.1253m  946.1280m  945.0156m 
  783.00000p  951.7082m    7.1041m  946.3641m  945.2564m 
  784.00000p  951.9200m    7.0830m  946.6003m  945.4972m 
  785.00000p  952.1319m    7.0618m  946.8364m  945.7380m 
  786.00000p  952.3437m    7.0406m  947.0725m  945.9787m 
  787.00000p  952.5555m    7.0195m  947.3087m  946.2195m 
  788.00000p  952.7674m    6.9983m  947.5448m  946.4603m 
  789.00000p  952.9792m    6.9771m  947.7809m  946.7011m 
  790.00000p  953.1910m    6.9560m  948.0171m  946.9419m 
  791.00000p  953.4028m    6.9348m  948.2532m  947.1827m 
  792.00000p  953.6147m    6.9136m  948.4894m  947.4235m 
  793.00000p  953.8265m    6.8925m  948.7255m  947.6643m 
  794.00000p  954.0383m    6.8713m  948.9616m  947.9051m 
  795.00000p  954.2501m    6.8501m  949.1978m  948.1458m 
  796.00000p  954.4620m    6.8290m  949.4339m  948.3866m 
  797.00000p  954.6738m    6.8078m  949.6700m  948.6274m 
  798.00000p  954.8856m    6.7866m  949.9062m  948.8682m 
  799.00000p  955.0975m    6.7655m  950.1423m  949.1090m 
  800.00000p  955.3093m    6.7443m  950.3784m  949.3498m 
  801.00000p  955.5211m    6.7231m  950.6146m  949.5906m 
  802.00000p  955.7329m    6.7020m  950.8507m  949.8314m 
  803.00000p  955.9448m    6.6808m  951.0868m  950.0721m 
  804.00000p  956.1566m    6.6596m  951.3230m  950.3129m 
  805.00000p  956.3684m    6.6385m  951.5591m  950.5537m 
  806.00000p  956.5803m    6.6173m  951.7953m  950.7945m 
  807.00000p  956.7921m    6.5961m  952.0314m  951.0353m 
  808.00000p  957.0039m    6.5750m  952.2675m  951.2761m 
  809.00000p  957.2157m    6.5538m  952.5037m  951.5169m 
  810.00000p  957.4276m    6.5326m  952.7398m  951.7577m 
  811.00000p  957.6394m    6.5115m  952.9759m  951.9984m 
  812.00000p  957.8512m    6.4903m  953.2121m  952.2392m 
  813.00000p  958.0630m    6.4691m  953.4482m  952.4800m 
  814.00000p  958.2749m    6.4480m  953.6843m  952.7208m 
  815.00000p  958.4867m    6.4268m  953.9205m  952.9616m 
  816.00000p  958.6985m    6.4056m  954.1566m  953.2024m 
  817.00000p  958.9104m    6.3845m  954.3928m  953.4432m 
  818.00000p  959.1222m    6.3633m  954.6289m  953.6840m 
  819.00000p  959.3340m    6.3421m  954.8650m  953.9247m 
  820.00000p  959.5458m    6.3210m  955.1012m  954.1655m 
  821.00000p  959.7115m    6.3063m  955.2861m  954.3544m 
  822.00000p  959.8587m    6.2942m  955.4505m  954.5224m 
  823.00000p  960.0058m    6.2821m  955.6149m  954.6903m 
  824.00000p  960.1530m    6.2700m  955.7793m  954.8583m 
  825.00000p  960.3001m    6.2580m  955.9437m  955.0263m 
  826.00000p  960.4472m    6.2459m  956.1081m  955.1942m 
  827.00000p  960.5944m    6.2338m  956.2724m  955.3622m 
  828.00000p  960.7415m    6.2217m  956.4368m  955.5302m 
  829.00000p  960.8886m    6.2097m  956.6012m  955.6981m 
  830.00000p  961.0358m    6.1976m  956.7656m  955.8661m 
  831.00000p  961.1829m    6.1855m  956.9300m  956.0341m 
  832.00000p  961.3301m    6.1734m  957.0943m  956.2020m 
  833.00000p  961.4772m    6.1613m  957.2587m  956.3700m 
  834.00000p  961.6243m    6.1493m  957.4231m  956.5380m 
  835.00000p  961.7715m    6.1372m  957.5875m  956.7059m 
  836.00000p  961.9186m    6.1251m  957.7519m  956.8739m 
  837.00000p  962.0657m    6.1130m  957.9163m  957.0419m 
  838.00000p  962.2129m    6.1009m  958.0806m  957.2098m 
  839.00000p  962.3600m    6.0889m  958.2450m  957.3778m 
  840.00000p  962.5072m    6.0768m  958.4094m  957.5458m 
  841.00000p  962.6543m    6.0647m  958.5738m  957.7137m 
  842.00000p  962.8014m    6.0526m  958.7382m  957.8817m 
  843.00000p  962.9486m    6.0406m  958.9026m  958.0497m 
  844.00000p  963.0957m    6.0285m  959.0669m  958.2177m 
  845.00000p  963.2428m    6.0164m  959.2313m  958.3856m 
  846.00000p  963.3900m    6.0043m  959.3957m  958.5536m 
  847.00000p  963.5371m    5.9922m  959.5601m  958.7216m 
  848.00000p  963.6843m    5.9802m  959.7245m  958.8895m 
  849.00000p  963.8314m    5.9681m  959.8888m  959.0575m 
  850.00000p  963.9785m    5.9560m  960.0532m  959.2255m 
  851.00000p  964.1257m    5.9439m  960.2176m  959.3934m 
  852.00000p  964.2728m    5.9319m  960.3820m  959.5614m 
  853.00000p  964.4200m    5.9198m  960.5464m  959.7294m 
  854.00000p  964.5671m    5.9077m  960.7108m  959.8973m 
  855.00000p  964.7142m    5.8956m  960.8751m  960.0653m 
  856.00000p  964.8614m    5.8835m  961.0395m  960.2333m 
  857.00000p  965.0085m    5.8715m  961.2039m  960.4012m 
  858.00000p  965.1556m    5.8594m  961.3683m  960.5692m 
  859.00000p  965.3028m    5.8473m  961.5327m  960.7372m 
  860.00000p  965.4499m    5.8352m  961.6971m  960.9051m 
  861.00000p  965.5971m    5.8231m  961.8614m  961.0731m 
  862.00000p  965.7442m    5.8111m  962.0258m  961.2411m 
  863.00000p  965.8913m    5.7990m  962.1902m  961.4090m 
  864.00000p  966.0385m    5.7869m  962.3546m  961.5770m 
  865.00000p  966.1856m    5.7748m  962.5190m  961.7450m 
  866.00000p  966.3327m    5.7628m  962.6833m  961.9129m 
  867.00000p  966.4799m    5.7507m  962.8477m  962.0809m 
  868.00000p  966.6270m    5.7386m  963.0121m  962.2489m 
  869.00000p  966.7742m    5.7265m  963.1765m  962.4168m 
  870.00000p  966.9213m    5.7144m  963.3409m  962.5848m 
  871.00000p  967.0684m    5.7024m  963.5053m  962.7528m 
  872.00000p  967.2156m    5.6903m  963.6696m  962.9207m 
  873.00000p  967.3627m    5.6782m  963.8340m  963.0887m 
  874.00000p  967.5098m    5.6661m  963.9984m  963.2567m 
  875.00000p  967.6570m    5.6541m  964.1628m  963.4246m 
  876.00000p  967.8041m    5.6420m  964.3272m  963.5926m 
  877.00000p  967.9513m    5.6299m  964.4915m  963.7606m 
  878.00000p  968.0984m    5.6178m  964.6559m  963.9285m 
  879.00000p  968.2455m    5.6057m  964.8203m  964.0965m 
  880.00000p  968.3927m    5.5937m  964.9847m  964.2645m 
  881.00000p  968.5398m    5.5816m  965.1491m  964.4324m 
  882.00000p  968.6869m    5.5695m  965.3135m  964.6004m 
  883.00000p  968.8341m    5.5574m  965.4778m  964.7684m 
  884.00000p  968.9812m    5.5453m  965.6422m  964.9363m 
  885.00000p  969.1284m    5.5333m  965.8066m  965.1043m 
  886.00000p  969.2755m    5.5212m  965.9710m  965.2723m 
  887.00000p  969.4226m    5.5091m  966.1354m  965.4402m 
  888.00000p  969.5698m    5.4970m  966.2998m  965.6082m 
  889.00000p  969.7169m    5.4850m  966.4641m  965.7762m 
  890.00000p  969.8640m    5.4729m  966.6285m  965.9441m 
  891.00000p  970.0112m    5.4608m  966.7929m  966.1121m 
  892.00000p  970.1583m    5.4487m  966.9573m  966.2801m 
  893.00000p  970.3055m    5.4366m  967.1217m  966.4480m 
  894.00000p  970.4526m    5.4246m  967.2860m  966.6160m 
  895.00000p  970.5997m    5.4125m  967.4504m  966.7840m 
  896.00000p  970.7469m    5.4004m  967.6148m  966.9519m 
  897.00000p  970.8940m    5.3883m  967.7792m  967.1199m 
  898.00000p  971.0411m    5.3762m  967.9436m  967.2879m 
  899.00000p  971.1883m    5.3642m  968.1080m  967.4558m 
  900.00000p  971.3354m    5.3521m  968.2723m  967.6238m 
  901.00000p  971.4826m    5.3400m  968.4367m  967.7918m 
  902.00000p  971.6297m    5.3279m  968.6011m  967.9597m 
  903.00000p  971.7768m    5.3159m  968.7655m  968.1277m 
  904.00000p  971.9240m    5.3038m  968.9299m  968.2957m 
  905.00000p  972.0711m    5.2917m  969.0943m  968.4636m 
  906.00000p  972.2182m    5.2796m  969.2586m  968.6316m 
  907.00000p  972.3654m    5.2675m  969.4230m  968.7996m 
  908.00000p  972.5125m    5.2555m  969.5874m  968.9675m 
  909.00000p  972.6597m    5.2434m  969.7518m  969.1355m 
  910.00000p  972.8068m    5.2313m  969.9162m  969.3035m 
  911.00000p  972.9539m    5.2192m  970.0805m  969.4714m 
  912.00000p  973.1011m    5.2072m  970.2449m  969.6394m 
  913.00000p  973.2482m    5.1951m  970.4093m  969.8074m 
  914.00000p  973.3953m    5.1830m  970.5737m  969.9753m 
  915.00000p  973.5425m    5.1709m  970.7381m  970.1433m 
  916.00000p  973.6600m    5.1613m  970.8697m  970.2779m 
  917.00000p  973.7542m    5.1536m  970.9757m  970.3862m 
  918.00000p  973.8484m    5.1460m  971.0816m  970.4945m 
  919.00000p  973.9426m    5.1383m  971.1876m  970.6029m 
  920.00000p  974.0368m    5.1306m  971.2935m  970.7112m 
  921.00000p  974.1310m    5.1230m  971.3995m  970.8195m 
  922.00000p  974.2252m    5.1153m  971.5055m  970.9279m 
  923.00000p  974.3194m    5.1076m  971.6114m  971.0362m 
  924.00000p  974.4136m    5.1000m  971.7174m  971.1445m 
  925.00000p  974.5079m    5.0923m  971.8233m  971.2529m 
  926.00000p  974.6021m    5.0846m  971.9293m  971.3612m 
  927.00000p  974.6963m    5.0770m  972.0352m  971.4695m 
  928.00000p  974.7905m    5.0693m  972.1412m  971.5779m 
  929.00000p  974.8847m    5.0616m  972.2471m  971.6862m 
  930.00000p  974.9789m    5.0540m  972.3531m  971.7945m 
  931.00000p  975.0731m    5.0463m  972.4591m  971.9029m 
  932.00000p  975.1673m    5.0386m  972.5650m  972.0112m 
  933.00000p  975.2615m    5.0310m  972.6710m  972.1195m 
  934.00000p  975.3557m    5.0233m  972.7769m  972.2279m 
  935.00000p  975.4500m    5.0156m  972.8829m  972.3362m 
  936.00000p  975.5442m    5.0080m  972.9888m  972.4445m 
  937.00000p  975.6384m    5.0003m  973.0948m  972.5529m 
  938.00000p  975.7326m    4.9926m  973.2007m  972.6612m 
  939.00000p  975.8268m    4.9850m  973.3067m  972.7695m 
  940.00000p  975.9210m    4.9773m  973.4127m  972.8779m 
  941.00000p  976.0152m    4.9696m  973.5186m  972.9862m 
  942.00000p  976.1094m    4.9620m  973.6246m  973.0945m 
  943.00000p  976.2036m    4.9543m  973.7305m  973.2028m 
  944.00000p  976.2979m    4.9466m  973.8365m  973.3112m 
  945.00000p  976.3921m    4.9390m  973.9424m  973.4195m 
  946.00000p  976.4863m    4.9313m  974.0484m  973.5278m 
  947.00000p  976.5805m    4.9236m  974.1543m  973.6362m 
  948.00000p  976.6747m    4.9160m  974.2603m  973.7445m 
  949.00000p  976.7689m    4.9083m  974.3663m  973.8528m 
  950.00000p  976.8631m    4.9006m  974.4722m  973.9612m 
  951.00000p  976.9573m    4.8929m  974.5782m  974.0695m 
  952.00000p  977.0515m    4.8853m  974.6841m  974.1778m 
  953.00000p  977.1457m    4.8776m  974.7901m  974.2862m 
  954.00000p  977.2400m    4.8699m  974.8960m  974.3945m 
  955.00000p  977.3342m    4.8623m  975.0020m  974.5028m 
  956.00000p  977.4284m    4.8546m  975.1080m  974.6112m 
  957.00000p  977.5226m    4.8469m  975.2139m  974.7195m 
  958.00000p  977.6168m    4.8393m  975.3199m  974.8278m 
  959.00000p  977.7110m    4.8316m  975.4258m  974.9362m 
  960.00000p  977.8052m    4.8239m  975.5318m  975.0445m 
  961.00000p  977.8994m    4.8163m  975.6377m  975.1528m 
  962.00000p  977.9936m    4.8086m  975.7437m  975.2612m 
  963.00000p  978.0879m    4.8009m  975.8496m  975.3695m 
  964.00000p  978.1821m    4.7933m  975.9556m  975.4778m 
  965.00000p  978.2763m    4.7856m  976.0616m  975.5862m 
  966.00000p  978.3705m    4.7779m  976.1675m  975.6945m 
  967.00000p  978.4647m    4.7703m  976.2735m  975.8028m 
  968.00000p  978.5589m    4.7626m  976.3794m  975.9112m 
  969.00000p  978.6531m    4.7549m  976.4854m  976.0195m 
  970.00000p  978.7473m    4.7473m  976.5913m  976.1278m 
  971.00000p  978.8415m    4.7396m  976.6973m  976.2362m 
  972.00000p  978.9357m    4.7319m  976.8032m  976.3445m 
  973.00000p  979.0300m    4.7243m  976.9092m  976.4528m 
  974.00000p  979.1242m    4.7166m  977.0152m  976.5612m 
  975.00000p  979.2184m    4.7089m  977.1211m  976.6695m 
  976.00000p  979.3126m    4.7013m  977.2271m  976.7778m 
  977.00000p  979.4068m    4.6936m  977.3330m  976.8862m 
  978.00000p  979.5010m    4.6859m  977.4390m  976.9945m 
  979.00000p  979.5952m    4.6783m  977.5449m  977.1028m 
  980.00000p  979.6894m    4.6706m  977.6509m  977.2112m 
  981.00000p  979.7836m    4.6629m  977.7568m  977.3195m 
  982.00000p  979.8779m    4.6553m  977.8628m  977.4278m 
  983.00000p  979.9721m    4.6476m  977.9688m  977.5362m 
  984.00000p  980.0663m    4.6399m  978.0747m  977.6445m 
  985.00000p  980.1605m    4.6323m  978.1807m  977.7528m 
  986.00000p  980.2547m    4.6246m  978.2866m  977.8612m 
  987.00000p  980.3489m    4.6169m  978.3926m  977.9695m 
  988.00000p  980.4431m    4.6093m  978.4985m  978.0778m 
  989.00000p  980.5373m    4.6016m  978.6045m  978.1862m 
  990.00000p  980.6315m    4.5939m  978.7105m  978.2945m 
  991.00000p  980.7257m    4.5863m  978.8164m  978.4028m 
  992.00000p  980.8200m    4.5786m  978.9224m  978.5112m 
  993.00000p  980.9142m    4.5709m  979.0283m  978.6195m 
  994.00000p  981.0084m    4.5632m  979.1343m  978.7278m 
  995.00000p  981.1026m    4.5556m  979.2402m  978.8362m 
  996.00000p  981.1968m    4.5479m  979.3462m  978.9445m 
  997.00000p  981.2910m    4.5402m  979.4521m  979.0528m 
  998.00000p  981.0465m    3.8525m  977.5003m  978.9632m 
  999.00000p    1.0250    10.2178m  979.6166m  978.6852m 
    1.00000n  983.4641m    2.6897m  978.7520m  978.5768m 
    1.00100n  945.5197m   -3.7135m  974.5849m  978.4030m 
    1.00200n  917.8196m   -7.6731m  968.8394m  977.6203m 
    1.00300n  895.4297m  -10.5678m  962.9513m  975.8991m 
    1.00400n  879.3211m  -12.2029m  956.8943m  973.0679m 
    1.00500n  863.2126m  -13.8380m  950.8374m  970.2368m 
    1.00600n  855.0500m  -14.4669m  945.3517m  965.9089m 
    1.00700n  847.6606m  -14.9980m  939.9216m  961.4354m 
    1.00800n  840.2712m  -15.5291m  934.4915m  956.9619m 
    1.00900n  837.6582m  -14.6729m  929.7887m  952.1993m 
    1.01000n  836.6877m  -13.3397m  925.3361m  947.3374m 
    1.01100n  835.7173m  -12.0065m  920.8834m  942.4754m 
    1.01200n  834.7469m  -10.6732m  916.4308m  937.6134m 
    1.01300n  835.8739m   -8.3690m  912.7367m  933.1757m 
    1.01400n  838.7269m   -5.2659m  909.6666m  929.0872m 
    1.01500n  841.5799m   -2.1627m  906.5966m  924.9986m 
    1.01600n  844.4328m  940.4382u  903.5266m  920.9101m 
    1.01700n  847.2858m    4.0436m  900.4566m  916.8215m 
    1.01800n  850.1388m    7.1468m  897.3866m  912.7330m 
    1.01900n  852.9845m   10.8351m  894.7204m  909.0768m 
    1.02000n  855.8167m   15.6105m  892.8045m  906.2238m 
    1.02100n  858.6490m   20.3858m  890.8887m  903.3707m 
    1.02200n  861.4813m   25.1612m  888.9728m  900.5177m 
    1.02300n  864.3135m   29.9366m  887.0569m  897.6647m 
    1.02400n  866.9463m   35.0698m  885.1930m  894.9052m 
    1.02500n  867.6257m   43.7074m  883.8378m  893.0612m 
    1.02600n  868.3050m   52.3450m  882.4825m  891.2172m 
    1.02700n  868.9844m   60.9826m  881.1273m  889.3733m 
    1.02800n  869.6637m   69.6202m  879.7721m  887.5293m 
    1.02900n  870.3431m   78.2578m  878.4169m  885.6853m 
    1.03000n  871.0224m   86.8954m  877.0617m  883.8414m 
    1.03100n  871.7018m   95.5330m  875.7065m  881.9974m 
    1.03200n  871.4436m  107.8495m  874.2488m  880.4152m 
    1.03300n  870.6112m  122.4193m  872.7285m  878.9933m 
    1.03400n  869.7788m  136.9891m  871.2081m  877.5714m 
    1.03500n  868.9463m  151.5589m  869.6877m  876.1495m 
    1.03600n  868.1139m  166.1288m  868.1673m  874.7276m 
    1.03700n  867.2815m  180.6986m  866.6469m  873.3057m 
    1.03800n  866.3145m  196.0895m  865.0063m  871.8255m 
    1.03900n  864.6641m  215.6500m  862.7552m  870.0487m 
    1.04000n  863.0138m  235.2105m  860.5041m  868.2720m 
    1.04100n  861.3634m  254.7711m  858.2530m  866.4952m 
    1.04200n  859.7131m  274.3316m  856.0019m  864.7185m 
    1.04300n  858.0627m  293.8921m  853.7508m  862.9417m 
    1.04400n  856.4123m  313.4526m  851.4997m  861.1650m 
    1.04500n  854.6751m  333.1724m  849.2452m  859.3055m 
    1.04600n  852.5873m  353.5350m  846.9771m  857.1121m 
    1.04700n  850.4995m  373.8976m  844.7089m  854.9187m 
    1.04800n  849.9783m  391.7447m  845.7652m  854.0047m 
    1.04900n  849.6708m  409.2488m  847.2749m  853.2652m 
    1.05000n  849.3633m  426.7528m  848.7845m  852.5257m 
    1.05100n  849.1038m  444.3437m  850.2976m  851.8226m 
    1.05200n  849.2264m  462.8713m  851.9215m  851.4672m 
    1.05300n  849.9187m  483.2782m  853.8743m  851.7433m 
    1.05400n  850.6109m  503.6851m  855.8270m  852.0193m 
    1.05500n  851.4857m  524.5468m  857.9094m  852.4928m 
    1.05600n  853.2925m  547.7311m  860.6546m  853.9751m 
    1.05700n  855.0993m  570.9155m  863.3998m  855.4573m 
    1.05800n  856.9061m  594.0999m  866.1450m  856.9395m 
    1.05900n  858.7129m  617.2843m  868.8902m  858.4217m 
    1.06000n  861.5141m  638.4640m  872.2664m  860.9929m 
    1.06100n  864.3228m  659.6287m  875.6473m  863.5723m 
    1.06200n  867.1314m  680.7935m  879.0281m  866.1517m 
    1.06300n  869.9401m  701.9582m  882.4090m  868.7310m 
    1.06400n  872.7488m  723.1229m  885.7899m  871.3104m 
    1.06500n  876.0666m  738.9902m  889.3170m  874.4701m 
    1.06600n  879.5062m  753.5910m  892.8789m  877.7685m 
    1.06700n  882.9457m  768.1919m  896.4409m  881.0670m 
    1.06800n  886.3852m  782.7927m  900.0029m  884.3654m 
    1.06900n  889.8248m  797.3936m  903.5649m  887.6638m 
    1.07000n  893.2643m  811.9945m  907.1269m  890.9623m 
    1.07100n  896.7059m  822.5213m  910.4524m  894.3345m 
    1.07200n  900.1484m  831.3306m  913.6780m  897.7379m 
    1.07300n  903.5908m  840.1399m  916.9037m  901.1412m 
    1.07400n  907.0333m  848.9492m  920.1294m  904.5446m 
    1.07500n  910.4758m  857.7585m  923.3551m  907.9479m 
    1.07600n  913.9182m  866.5679m  926.5808m  911.3513m 
    1.07700n  917.3607m  875.3772m  929.8065m  914.7547m 
    1.07800n  920.8032m  884.1865m  933.0322m  918.1580m 
    1.07900n  923.9404m  890.9927m  935.8673m  921.3021m 
    1.08000n  926.8751m  896.4689m  938.4430m  924.2739m 
    1.08100n  929.8097m  901.9451m  941.0187m  927.2458m 
    1.08200n  932.7444m  907.4213m  943.5944m  930.2177m 
    1.08300n  935.6790m  912.8975m  946.1702m  933.1895m 
    1.08400n  938.6137m  918.3737m  948.7459m  936.1614m 
    1.08500n  941.5483m  923.8499m  951.3216m  939.1332m 
    1.08600n  944.3284m  928.8740m  953.7498m  941.9585m 
    1.08700n  946.4956m  932.1047m  955.5929m  944.2023m 
    1.08800n  948.6628m  935.3354m  957.4360m  946.4461m 
    1.08900n  950.8299m  938.5661m  959.2791m  948.6899m 
    1.09000n  952.9971m  941.7968m  961.1222m  950.9337m 
    1.09100n  955.1643m  945.0275m  962.9653m  953.1776m 
    1.09200n  957.3315m  948.2582m  964.8084m  955.4214m 
    1.09300n  959.4986m  951.4889m  966.6515m  957.6652m 
    1.09400n  961.6658m  954.7196m  968.4946m  959.9090m 
    1.09500n  963.8330m  957.9503m  970.3377m  962.1528m 
    1.09600n  965.6179m  960.4517m  971.8439m  964.0078m 
    1.09700n  966.9642m  962.1166m  972.9636m  965.4170m 
    1.09800n  968.3106m  963.7815m  974.0832m  966.8261m 
    1.09900n  969.6570m  965.4463m  975.2029m  968.2352m 
    1.10000n  971.0033m  967.1112m  976.3225m  969.6444m 
    1.10100n  972.3497m  968.7761m  977.4422m  971.0535m 
    1.10200n  973.6961m  970.4410m  978.5618m  972.4626m 
    1.10300n  975.0424m  972.1058m  979.6815m  973.8717m 
    1.10400n  976.3888m  973.7707m  980.8012m  975.2809m 
    1.10500n  977.7352m  975.4356m  981.9208m  976.6900m 
    1.10600n  979.0816m  977.1005m  983.0405m  978.0991m 
    1.10700n  980.4279m  978.7653m  984.1601m  979.5083m 
    1.10800n  981.6784m  980.2995m  985.1987m  980.8184m 
    1.10900n  982.3657m  981.0662m  985.7612m  981.5473m 
    1.11000n  983.0530m  981.8328m  986.3237m  982.2762m 
    1.11100n  983.7402m  982.5995m  986.8862m  983.0051m 
    1.11200n  984.4275m  983.3661m  987.4488m  983.7340m 
    1.11300n  985.1148m  984.1328m  988.0113m  984.4629m 
    1.11400n  985.8021m  984.8994m  988.5738m  985.1918m 
    1.11500n  986.4893m  985.6661m  989.1363m  985.9207m 
    1.11600n  987.1766m  986.4327m  989.6988m  986.6496m 
    1.11700n  987.8639m  987.1994m  990.2613m  987.3785m 
    1.11800n  988.5512m  987.9660m  990.8238m  988.1074m 
    1.11900n  989.2384m  988.7327m  991.3863m  988.8363m 
    1.12000n  989.9257m  989.4993m  991.9488m  989.5652m 
    1.12100n  990.6130m  990.2660m  992.5113m  990.2941m 
    1.12200n  991.3002m  991.0326m  993.0738m  991.0230m 
    1.12300n  991.7792m  991.5591m  993.4655m  991.5303m 
    1.12400n  992.0615m  991.8588m  993.6958m  991.8283m 
    1.12500n  992.3438m  992.1584m  993.9261m  992.1262m 
    1.12600n  992.6261m  992.4580m  994.1565m  992.4242m 
    1.12700n  992.9084m  992.7577m  994.3868m  992.7221m 
    1.12800n  993.1906m  993.0573m  994.6171m  993.0201m 
    1.12900n  993.4729m  993.3570m  994.8475m  993.3181m 
    1.13000n  993.7552m  993.6566m  995.0778m  993.6160m 
    1.13100n  994.0375m  993.9562m  995.3081m  993.9140m 
    1.13200n  994.3198m  994.2559m  995.5385m  994.2119m 
    1.13300n  994.6020m  994.5555m  995.7688m  994.5099m 
    1.13400n  994.8843m  994.8552m  995.9991m  994.8078m 
    1.13500n  995.1666m  995.1548m  996.2295m  995.1058m 
    1.13600n  995.4489m  995.4544m  996.4598m  995.4038m 
    1.13700n  995.7312m  995.7541m  996.6901m  995.7017m 
    1.13800n  996.0135m  996.0537m  996.9205m  995.9997m 
    1.13900n  996.2957m  996.3534m  997.1508m  996.2976m 
    1.14000n  996.5780m  996.6530m  997.3811m  996.5956m 
    1.14100n  996.8603m  996.9526m  997.6115m  996.8936m 
    1.14200n  997.1426m  997.2523m  997.8418m  997.1915m 
    1.14300n  997.2509m  997.3658m  997.9285m  997.3055m 
    1.14400n  997.3311m  997.4492m  997.9921m  997.3897m 
    1.14500n  997.4113m  997.5326m  998.0556m  997.4739m 
    1.14600n  997.4914m  997.6160m  998.1191m  997.5582m 
    1.14700n  997.5716m  997.6994m  998.1827m  997.6424m 
    1.14800n  997.6518m  997.7828m  998.2462m  997.7266m 
    1.14900n  997.7320m  997.8662m  998.3098m  997.8109m 
    1.15000n  997.8122m  997.9496m  998.3733m  997.8951m 
    1.15100n  997.8924m  998.0330m  998.4368m  997.9793m 
    1.15200n  997.9726m  998.1164m  998.5004m  998.0635m 
    1.15300n  998.0528m  998.1998m  998.5639m  998.1478m 
    1.15400n  998.1330m  998.2832m  998.6274m  998.2320m 
    1.15500n  998.2132m  998.3667m  998.6910m  998.3162m 
    1.15600n  998.2934m  998.4501m  998.7545m  998.4005m 
    1.15700n  998.3736m  998.5335m  998.8180m  998.4847m 
    1.15800n  998.4538m  998.6169m  998.8816m  998.5689m 
    1.15900n  998.5340m  998.7003m  998.9451m  998.6532m 
    1.16000n  998.6142m  998.7837m  999.0086m  998.7374m 
    1.16100n  998.6943m  998.8671m  999.0722m  998.8216m 
    1.16200n  998.7745m  998.9505m  999.1357m  998.9059m 
    1.16300n  998.8547m  999.0339m  999.1992m  998.9901m 
    1.16400n  998.9349m  999.1173m  999.2628m  999.0743m 
    1.16500n  999.0151m  999.2007m  999.3263m  999.1585m 
    1.16600n  999.0953m  999.2842m  999.3899m  999.2428m 
    1.16700n  999.1726m  999.3644m  999.4511m  999.3239m 
    1.16800n  999.1899m  999.3805m  999.4648m  999.3406m 
    1.16900n  999.2072m  999.3966m  999.4785m  999.3573m 
    1.17000n  999.2245m  999.4126m  999.4922m  999.3740m 
    1.17100n  999.2418m  999.4287m  999.5060m  999.3907m 
    1.17200n  999.2591m  999.4447m  999.5197m  999.4074m 
    1.17300n  999.2764m  999.4608m  999.5334m  999.4241m 
    1.17400n  999.2937m  999.4769m  999.5471m  999.4408m 
    1.17500n  999.3110m  999.4929m  999.5608m  999.4575m 
    1.17600n  999.3283m  999.5090m  999.5746m  999.4742m 
    1.17700n  999.3456m  999.5250m  999.5883m  999.4909m 
    1.17800n  999.3629m  999.5411m  999.6020m  999.5076m 
    1.17900n  999.3802m  999.5572m  999.6157m  999.5243m 
    1.18000n  999.3975m  999.5732m  999.6294m  999.5410m 
    1.18100n  999.4148m  999.5893m  999.6432m  999.5577m 
    1.18200n  999.4321m  999.6053m  999.6569m  999.5744m 
    1.18300n  999.4494m  999.6214m  999.6706m  999.5911m 
    1.18400n  999.4667m  999.6375m  999.6843m  999.6078m 
    1.18500n  999.4840m  999.6535m  999.6980m  999.6245m 
    1.18600n  999.5013m  999.6696m  999.7118m  999.6412m 
    1.18700n  999.5186m  999.6856m  999.7255m  999.6579m 
    1.18800n  999.5359m  999.7017m  999.7392m  999.6747m 
    1.18900n  999.5532m  999.7177m  999.7529m  999.6914m 
    1.19000n  999.5705m  999.7338m  999.7666m  999.7081m 
    1.19100n  999.5878m  999.7499m  999.7804m  999.7248m 
    1.19200n  999.6051m  999.7659m  999.7941m  999.7415m 
    1.19300n  999.6224m  999.7820m  999.8078m  999.7582m 
    1.19400n  999.6397m  999.7980m  999.8215m  999.7749m 
    1.19500n  999.6570m  999.8141m  999.8352m  999.7916m 
    1.19600n  999.6743m  999.8302m  999.8490m  999.8083m 
    1.19700n  999.6916m  999.8462m  999.8627m  999.8250m 
    1.19800n  999.7089m  999.8623m  999.8764m  999.8417m 
    1.19900n  999.7262m  999.8783m  999.8901m  999.8584m 
    1.20000n  999.7435m  999.8944m  999.9038m  999.8751m 
    1.20100n  999.7597m  999.9094m  999.9166m  999.8907m 
    1.20200n  999.7623m  999.9110m  999.9170m  999.8932m 
    1.20300n  999.7649m  999.9125m  999.9174m  999.8956m 
    1.20400n  999.7675m  999.9141m  999.9179m  999.8980m 
    1.20500n  999.7701m  999.9157m  999.9183m  999.9004m 
    1.20600n  999.7727m  999.9173m  999.9187m  999.9029m 
    1.20700n  999.7752m  999.9188m  999.9192m  999.9053m 
    1.20800n  999.7778m  999.9204m  999.9196m  999.9077m 
    1.20900n  999.7804m  999.9220m  999.9200m  999.9101m 
    1.21000n  999.7830m  999.9236m  999.9205m  999.9126m 
    1.21100n  999.7856m  999.9251m  999.9209m  999.9150m 
    1.21200n  999.7882m  999.9267m  999.9213m  999.9174m 
    1.21300n  999.7907m  999.9283m  999.9218m  999.9198m 
    1.21400n  999.7933m  999.9299m  999.9222m  999.9223m 
    1.21500n  999.7959m  999.9314m  999.9226m  999.9247m 
    1.21600n  999.7985m  999.9330m  999.9230m  999.9271m 
    1.21700n  999.8011m  999.9346m  999.9235m  999.9295m 
    1.21800n    1.0001     1.0002     1.0004     1.0002  
    1.21900n    1.0011     1.0012     1.0019     1.0010  
    1.22000n    1.0022     1.0022     1.0035     1.0019  
    1.22100n    1.0032     1.0033     1.0050     1.0028  
    1.22200n    1.0042     1.0043     1.0066     1.0037  
    1.22300n    1.0053     1.0053     1.0081     1.0045  
    1.22400n    1.0063     1.0063     1.0097     1.0054  
    1.22500n    1.0074     1.0073     1.0109     1.0064  
    1.22600n    1.0084     1.0083     1.0120     1.0073  
    1.22700n    1.0095     1.0093     1.0130     1.0084  
    1.22800n    1.0105     1.0103     1.0140     1.0094  
    1.22900n    1.0116     1.0113     1.0149     1.0104  
    1.23000n    1.0126     1.0123     1.0159     1.0115  
    1.23100n    1.0136     1.0133     1.0169     1.0125  
    1.23200n    1.0143     1.0142     1.0177     1.0134  
    1.23300n    1.0146     1.0150     1.0185     1.0143  
    1.23400n    1.0149     1.0158     1.0192     1.0151  
    1.23500n    1.0152     1.0165     1.0200     1.0159  
    1.23600n    1.0155     1.0173     1.0207     1.0168  
    1.23700n    1.0159     1.0181     1.0215     1.0176  
    1.23800n    1.0162     1.0189     1.0222     1.0185  
    1.23900n    1.0165     1.0197     1.0230     1.0193  
    1.24000n    1.0168     1.0204     1.0237     1.0201  
    1.24100n    1.0171     1.0212     1.0245     1.0210  
    1.24200n    1.0174     1.0220     1.0252     1.0218  
    1.24300n    1.0177     1.0228     1.0260     1.0226  
    1.24400n    1.0181     1.0235     1.0267     1.0235  
    1.24500n    1.0184     1.0243     1.0275     1.0243  
    1.24600n    1.0187     1.0251     1.0283     1.0251  
    1.24700n    1.0190     1.0259     1.0290     1.0260  
    1.24800n    1.0193     1.0266     1.0298     1.0268  
    1.24900n    1.0196     1.0274     1.0305     1.0277  
    1.25000n    1.0181     1.0281     1.0308     1.0282  
    1.25100n    1.0133     1.0284     1.0302     1.0284  
    1.25200n    1.0085     1.0288     1.0297     1.0286  
    1.25300n    1.0037     1.0291     1.0291     1.0287  
    1.25400n  998.8304m    1.0295     1.0285     1.0289  
    1.25500n  994.0101m    1.0298     1.0280     1.0291  
    1.25600n  989.1898m    1.0302     1.0274     1.0292  
    1.25700n  984.2177m    1.0305     1.0267     1.0293  
    1.25800n  974.6678m    1.0301     1.0235     1.0275  
    1.25900n  965.1179m    1.0297     1.0203     1.0256  
    1.26000n  955.5680m    1.0293     1.0170     1.0237  
    1.26100n  946.0180m    1.0289     1.0138     1.0218  
    1.26200n  936.4681m    1.0285     1.0105     1.0199  
    1.26300n  926.9182m    1.0281     1.0073     1.0180  
    1.26400n  917.3682m    1.0277     1.0040     1.0161  
    1.26500n  907.8183m    1.0273     1.0008     1.0142  
    1.26600n  898.2684m    1.0269   997.5480m    1.0123  
    1.26700n  888.7185m    1.0265   994.3040m    1.0104  
    1.26800n  879.5225m    1.0257   990.3141m    1.0077  
    1.26900n  871.2366m    1.0241   984.4059m    1.0030  
    1.27000n  862.9508m    1.0224   978.4977m  998.2851m 
    1.27100n  854.6649m    1.0208   972.5894m  993.5649m 
    1.27200n  846.3790m    1.0191   966.6812m  988.8446m 
    1.27300n  838.2842m    1.0174   960.9513m  984.0324m 
    1.27400n  830.4761m    1.0158   955.3148m  979.0770m 
    1.27500n  823.2731m    1.0142   949.8286m  973.8181m 
    1.27600n  816.0701m    1.0126   944.3424m  968.5591m 
    1.27700n  808.8671m    1.0110   938.8561m  963.3002m 
    1.27800n  801.6640m    1.0094   933.3699m  958.0413m 
    1.27900n  794.6737m    1.0078   927.9104m  952.7351m 
    1.28000n  788.1591m    1.0064   922.5107m  947.3232m 
    1.28100n  781.6445m    1.0049   917.1109m  941.9113m 
    1.28200n  775.1299m    1.0034   911.7112m  936.4993m 
    1.28300n  768.6153m    1.0020   906.3114m  931.0874m 
    1.28400n  762.1007m    1.0005   900.9117m  925.6755m 
    1.28500n  755.6149m  999.0522m  895.5776m  920.3056m 
    1.28600n  749.1427m  997.6433m  890.2748m  914.9556m 
    1.28700n  742.6705m  996.2343m  884.9719m  909.6057m 
    1.28800n  736.1983m  994.8253m  879.6690m  904.2558m 
    1.28900n  729.7261m  993.4163m  874.3661m  898.9058m 
    1.29000n  723.2539m  992.0073m  869.0633m  893.5559m 
    1.29100n  716.7456m  990.5982m  863.7911m  888.2321m 
    1.29200n  710.1406m  989.1884m  858.6016m  882.9787m 
    1.29300n  703.5356m  987.7787m  853.4121m  877.7252m 
    1.29400n  696.9307m  986.3690m  848.2225m  872.4718m 
    1.29500n  690.3257m  984.9592m  843.0330m  867.2183m 
    1.29600n  683.7207m  983.5495m  837.8435m  861.9649m 
    1.29700n  677.1157m  982.1398m  832.6539m  856.7114m 
    1.29800n  670.4973m  980.7327m  827.4730m  851.4660m 
    1.29900n  663.6198m  979.3771m  822.4581m  846.3754m 
    1.30000n  656.7423m  978.0215m  817.4433m  841.2848m 
    1.30100n  649.8648m  976.6659m  812.4284m  836.1942m 
    1.30200n  642.9873m  975.3104m  807.4135m  831.1035m 
    1.30300n  636.1098m  973.9548m  802.3986m  826.0129m 
    1.30400n  629.2323m  972.5992m  797.3837m  820.9223m 
    1.30500n  622.3548m  971.2436m  792.3689m  815.8317m 
    1.30600n  615.4773m  969.8881m  787.3540m  810.7411m 
    1.30700n  608.5998m  968.5325m  782.3391m  805.6505m 
    1.30800n  601.7223m  967.1769m  777.3242m  800.5599m 
    1.30900n  594.7485m  965.8972m  772.4995m  795.6736m 
    1.31000n  587.7693m  964.6217m  767.6853m  790.7987m 
    1.31100n  580.7901m  963.3463m  762.8711m  785.9237m 
    1.31200n  573.8109m  962.0708m  758.0569m  781.0488m 
    1.31300n  566.8317m  960.7954m  753.2427m  776.1739m 
    1.31400n  559.8525m  959.5199m  748.4285m  771.2989m 
    1.31500n  552.8733m  958.2444m  743.6144m  766.4240m 
    1.31600n  545.8941m  956.9690m  738.8002m  761.5491m 
    1.31700n  538.9149m  955.6935m  733.9860m  756.6741m 
    1.31800n  531.9357m  954.4181m  729.1718m  751.7992m 
[...]
    3.28200n  -12.2603u 
    3.28300n  -12.1363u 
    3.28400n  -12.0124u 
    3.28500n  -11.8949u 
    3.28600n  -12.0265u 
    3.28700n  -12.1581u 
    3.28800n  -12.2898u 
    3.28900n  -12.4214u 
    3.29000n  -12.5530u 
    3.29100n  -12.6846u 
    3.29200n  -12.8163u 
    3.29300n  -12.8519u 
    3.29400n  -12.8647u 
    3.29500n  -12.8775u 
    3.29600n  -12.8902u 
    3.29700n  -12.9030u 
    3.29800n  -12.9158u 
    3.29900n  -12.9286u 
    3.30000n  -12.9414u 
    3.30100n  -12.9541u 
    3.30200n  -12.9669u 
    3.30300n  -13.0415u 
    3.30400n  -13.1419u 
    3.30500n  -13.2424u 
    3.30600n  -13.3429u 
    3.30700n  -13.4433u 
    3.30800n  -13.5438u 
    3.30900n  -13.6443u 
    3.31000n  -13.7447u 
    3.31100n  -13.8452u 
    3.31200n  -13.9457u 
    3.31300n  -14.0461u 
    3.31400n  -14.1466u 
    3.31500n  -14.2471u 
    3.31600n  -14.3475u 
    3.31700n  -14.4451u 
    3.31800n  -14.4363u 
    3.31900n  -14.4275u 
    3.32000n  -14.4188u 
    3.32100n  -14.4100u 
    3.32200n  -14.4012u 
    3.32300n  -14.3924u 
    3.32400n  -14.3837u 
    3.32500n  -14.3749u 
    3.32600n  -14.3661u 
    3.32700n  -14.3573u 
    3.32800n  -14.3486u 
    3.32900n  -14.3398u 
    3.33000n  -14.3310u 
    3.33100n  -14.3222u 
    3.33200n  -14.3135u 
    3.33300n  -14.3047u 
    3.33400n  -14.2959u 
    3.33500n  -14.2872u 
    3.33600n  -14.2784u 
    3.33700n  -14.2696u 
    3.33800n  -14.2608u 
    3.33900n  -14.2521u 
    3.34000n  -14.2433u 
    3.34100n  -14.2345u 
    3.34200n  -14.2412u 
    3.34300n  -14.3093u 
    3.34400n  -14.3775u 
    3.34500n  -14.4457u 
    3.34600n  -14.5139u 
    3.34700n  -14.5820u 
    3.34800n  -14.6502u 
    3.34900n  -14.7184u 
    3.35000n  -14.7866u 
    3.35100n  -14.8547u 
    3.35200n  -14.9229u 
    3.35300n  -14.9911u 
    3.35400n  -15.0593u 
    3.35500n  -15.1274u 
    3.35600n  -15.1956u 
    3.35700n  -15.2638u 
    3.35800n  -15.3320u 
    3.35900n  -15.4001u 
    3.36000n  -15.4696u 
    3.36100n  -15.5424u 
    3.36200n  -15.6152u 
    3.36300n  -15.6880u 
    3.36400n  -15.7608u 
    3.36500n  -15.8336u 
    3.36600n  -15.9064u 
    3.36700n  -15.9792u 
    3.36800n  -16.0520u 
    3.36900n  -16.1248u 
    3.37000n  -16.1976u 
    3.37100n  -16.2704u 
    3.37200n  -16.3433u 
    3.37300n  -16.4161u 
    3.37400n  -16.4889u 
    3.37500n  -16.5617u 
    3.37600n  -16.6345u 
    3.37700n  -16.7073u 
    3.37800n  -16.7801u 
    3.37900n  -16.8529u 
    3.38000n  -16.9257u 
    3.38100n  -16.9985u 
    3.38200n  -17.0713u 
    3.38300n  -17.1442u 
    3.38400n  -17.2170u 
    3.38500n  -17.2898u 
    3.38600n  -17.3626u 
    3.38700n  -17.4354u 
    3.38800n  -17.5082u 
    3.38900n  -17.5810u 
    3.39000n  -17.6538u 
    3.39100n  -17.7266u 
    3.39200n  -17.7994u 
    3.39300n  -17.8722u 
    3.39400n  -17.9451u 
    3.39500n  -18.0179u 
    3.39600n  -18.0907u 
    3.39700n  -18.1635u 
    3.39800n  -18.2363u 
    3.39900n  -18.3091u 
    3.40000n  -18.3819u 
    3.40100n  -18.4547u 
    3.40200n  -18.5275u 
    3.40300n  -18.6003u 
    3.40400n  -18.6731u 
    3.40500n  -18.7460u 
    3.40600n  -18.8188u 
    3.40700n  -18.8916u 
    3.40800n  -18.9644u 
    3.40900n  -19.0372u 
    3.41000n  -19.1100u 
    3.41100n  -19.1828u 
    3.41200n  -19.2556u 
    3.41300n  -19.3284u 
    3.41400n  -19.4012u 
    3.41500n  -19.4740u 
    3.41600n  -19.5469u 
    3.41700n  -19.6197u 
    3.41800n  -19.7483u 
    3.41900n  -19.8847u 
    3.42000n  -20.0212u 
    3.42100n  -20.1576u 
    3.42200n  -20.2941u 
    3.42300n  -20.4306u 
    3.42400n  -20.5670u 
    3.42500n  -20.7035u 
    3.42600n  -20.8399u 
    3.42700n  -20.9764u 
    3.42800n  -21.1128u 
    3.42900n  -21.2493u 
    3.43000n  -21.3857u 
    3.43100n  -21.5222u 
    3.43200n  -21.6586u 
    3.43300n  -21.7951u 
    3.43400n  -21.9315u 
    3.43500n  -22.0680u 
    3.43600n  -22.1683u 
    3.43700n  -22.1415u 
    3.43800n  -22.1146u 
    3.43900n  -22.0877u 
    3.44000n  -22.0609u 
    3.44100n  -22.0340u 
    3.44200n  -22.0071u 
    3.44300n  -21.9803u 
    3.44400n  -21.9534u 
    3.44500n  -21.9265u 
    3.44600n  -21.8997u 
    3.44700n  -21.8728u 
    3.44800n  -21.8459u 
    3.44900n  -21.8191u 
    3.45000n  -21.7922u 
    3.45100n  -21.7653u 
    3.45200n  -21.7385u 
    3.45300n  -21.5970u 
    3.45400n  -21.4169u 
    3.45500n  -21.2369u 
    3.45600n  -21.0569u 
    3.45700n  -20.8768u 
    3.45800n  -20.6968u 
    3.45900n  -20.5167u 
    3.46000n  -20.3367u 
    3.46100n  -20.1567u 
    3.46200n  -19.9766u 
    3.46300n  -19.7966u 
    3.46400n  -19.6166u 
    3.46500n  -19.4365u 
    3.46600n  -19.2565u 
    3.46700n  -19.0764u 
    3.46800n  -18.8964u 
    3.46900n  -18.7878u 
    3.47000n  -18.8671u 
    3.47100n  -18.9464u 
    3.47200n  -19.0257u 
    3.47300n  -19.1049u 
    3.47400n  -19.1842u 
    3.47500n  -19.2635u 
    3.47600n  -19.3428u 
    3.47700n  -19.4221u 
    3.47800n  -19.5014u 
    3.47900n  -19.5807u 
    3.48000n  -19.6600u 
    3.48100n  -19.7393u 
    3.48200n  -19.8186u 
    3.48300n  -19.8979u 
    3.48400n  -19.9772u 
    3.48500n  -20.0565u 
    3.48600n  -20.1357u 
    3.48700n  -20.1327u 
    3.48800n  -20.0752u 
    3.48900n  -20.0177u 
    3.49000n  -19.9602u 
    3.49100n  -19.9027u 
    3.49200n  -19.8452u 
    3.49300n  -19.7877u 
    3.49400n  -19.7302u 
    3.49500n  -19.6727u 
    3.49600n  -19.6152u 
    3.49700n  -19.5577u 
    3.49800n  -19.5002u 
    3.49900n  -19.4427u 
    3.50000n  -19.3852u 
    3.50100n  -19.3277u 
    3.50200n  -19.2702u 
    3.50300n  -19.2127u 
    3.50400n  -19.1552u 
    3.50500n  -19.0977u 
    3.50600n  -19.0402u 
    3.50700n  -18.9827u 
    3.50800n  -18.9252u 
    3.50900n  -18.8677u 
    3.51000n  -18.8102u 
    3.51100n  -18.7527u 
    3.51200n  -18.6952u 
    3.51300n  -18.6041u 
    3.51400n  -18.4180u 
    3.51500n  -18.2318u 
    3.51600n  -18.0457u 
    3.51700n  -17.8595u 
    3.51800n  -17.6734u 
    3.51900n  -17.4872u 
    3.52000n  -17.3011u 
    3.52100n  -17.1149u 
    3.52200n  -16.9288u 
    3.52300n  -16.7426u 
    3.52400n  -16.5564u 
    3.52500n  -16.3703u 
    3.52600n  -16.1472u 
    3.52700n  -15.9023u 
    3.52800n  -15.6575u 
    3.52900n  -15.4126u 
    3.53000n  -15.1678u 
    3.53100n  -14.9229u 
    3.53200n  -14.6780u 
    3.53300n  -14.4332u 
    3.53400n  -14.1883u 
    3.53500n  -13.9434u 
    3.53600n  -13.6742u 
    3.53700n  -13.3770u 
    3.53800n  -13.0798u 
    3.53900n  -12.7825u 
    3.54000n  -12.4853u 
    3.54100n  -12.1881u 
    3.54200n  -11.8909u 
    3.54300n  -11.5936u 
    3.54400n  -11.2964u 
    3.54500n  -10.9992u 
    3.54600n  -10.7870u 
    3.54700n  -10.7723u 
    3.54800n  -10.7576u 
    3.54900n  -10.7430u 
    3.55000n  -10.7283u 
    3.55100n  -10.7136u 
    3.55200n  -10.6990u 
    3.55300n  -10.6843u 
    3.55400n  -10.6696u 
    3.55500n  -10.6550u 
    3.55600n  -10.6403u 
    3.55700n  -10.6256u 
    3.55800n  -10.5187u 
    3.55900n  -10.3998u 
    3.56000n  -10.2809u 
    3.56100n  -10.1621u 
    3.56200n  -10.0432u 
    3.56300n   -9.9243u 
    3.56400n   -9.8054u 
    3.56500n   -9.6865u 
    3.56600n   -9.5676u 
    3.56700n   -9.4487u 
    3.56800n   -9.3298u 
    3.56900n   -9.2109u 
    3.57000n   -9.0921u 
    3.57100n   -8.9732u 
    3.57200n   -8.8543u 
    3.57300n   -8.7354u 
    3.57400n   -8.6165u 
    3.57500n   -8.4976u 
    3.57600n   -8.3787u 
    3.57700n   -8.3741u 
    3.57800n   -8.3946u 
    3.57900n   -8.4152u 
    3.58000n   -8.4358u 
    3.58100n   -8.4563u 
    3.58200n   -8.4769u 
    3.58300n   -8.4975u 
    3.58400n   -8.5180u 
    3.58500n   -8.5386u 
    3.58600n   -8.5591u 
    3.58700n   -8.5797u 
    3.58800n   -8.6003u 
    3.58900n   -8.6208u 
    3.59000n   -8.6414u 
    3.59100n   -8.6064u 
    3.59200n   -8.5296u 
    3.59300n   -8.4529u 
    3.59400n   -8.3761u 
    3.59500n   -8.2993u 
    3.59600n   -8.2226u 
    3.59700n   -8.1458u 
    3.59800n   -8.0691u 
    3.59900n   -7.9923u 
    3.60000n   -7.9155u 
    3.60100n   -7.8388u 
    3.60200n   -7.7620u 
    3.60300n   -7.6853u 
    3.60400n   -7.6085u 
    3.60500n   -7.5317u 
    3.60600n   -7.4550u 
    3.60700n   -7.3782u 
    3.60800n   -7.3015u 
    3.60900n   -7.2247u 
    3.61000n   -7.1479u 
    3.61100n   -7.0712u 
    3.61200n   -6.9944u 
    3.61300n   -6.9177u 
    3.61400n   -6.8409u 
    3.61500n   -6.7749u 
    3.61600n   -6.7756u 
    3.61700n   -6.7762u 
    3.61800n   -6.7768u 
    3.61900n   -6.7775u 
    3.62000n   -6.7781u 
    3.62100n   -6.7787u 
    3.62200n   -6.7794u 
    3.62300n   -6.7800u 
    3.62400n   -6.7806u 
    3.62500n   -6.7813u 
    3.62600n   -6.7819u 
    3.62700n   -6.7826u 
    3.62800n   -6.7832u 
    3.62900n   -6.7838u 
    3.63000n   -6.7845u 
    3.63100n   -6.7851u 
    3.63200n   -6.7857u 
    3.63300n   -6.7864u 
    3.63400n   -6.7870u 
    3.63500n   -6.7876u 
    3.63600n   -6.7883u 
    3.63700n   -6.7889u 
    3.63800n   -6.7896u 
    3.63900n   -6.7902u 
    3.64000n   -6.7908u 
    3.64100n   -6.7915u 
    3.64200n   -6.7921u 
    3.64300n   -6.7927u 
    3.64400n   -6.7934u 
    3.64500n   -6.7561u 
    3.64600n   -6.7103u 
    3.64700n   -6.6646u 
    3.64800n   -6.6189u 
    3.64900n   -6.5732u 
    3.65000n   -6.5274u 
    3.65100n   -6.4817u 
    3.65200n   -6.4360u 
    3.65300n   -6.3903u 
    3.65400n   -6.3446u 
    3.65500n   -6.2988u 
    3.65600n   -6.2531u 
    3.65700n   -6.2074u 
    3.65800n   -6.1617u 
    3.65900n   -6.1159u 
    3.66000n   -6.0702u 
    3.66100n   -6.0245u 
    3.66200n   -5.9788u 
    3.66300n   -5.9331u 
    3.66400n   -5.8873u 
    3.66500n   -5.8416u 
    3.66600n   -5.7959u 
    3.66700n   -5.7502u 
    3.66800n   -5.7044u 
    3.66900n   -5.6587u 
    3.67000n   -5.6130u 
    3.67100n   -5.5673u 
    3.67200n   -5.5216u 
    3.67300n   -5.4758u 
    3.67400n   -5.4301u 
    3.67500n   -5.3844u 
    3.67600n   -5.3387u 
    3.67700n   -5.2929u 
    3.67800n   -5.2472u 
    3.67900n   -5.2015u 
    3.68000n   -5.1558u 
    3.68100n   -5.1101u 
    3.68200n   -5.0643u 
    3.68300n   -5.0186u 
    3.68400n   -4.9729u 
    3.68500n   -4.9272u 
    3.68600n   -4.8814u 
    3.68700n   -4.8357u 
    3.68800n   -4.7900u 
    3.68900n   -4.7443u 
    3.69000n   -4.6985u 
    3.69100n   -4.6808u 
    3.69200n   -4.6758u 
    3.69300n   -4.6707u 
    3.69400n   -4.6657u 
    3.69500n   -4.6607u 
    3.69600n   -4.6557u 
    3.69700n   -4.6506u 
    3.69800n   -4.6456u 
    3.69900n   -4.6406u 
    3.70000n   -4.6356u 
    3.70100n   -4.6306u 
    3.70200n   -4.6255u 
    3.70300n   -4.6205u 
    3.70400n   -4.6155u 
    3.70500n   -4.6105u 
    3.70600n   -4.6055u 
    3.70700n   -4.6004u 
    3.70800n   -4.5954u 
    3.70900n   -4.5904u 
    3.71000n   -4.5854u 
    3.71100n   -4.5803u 
    3.71200n   -4.5753u 
    3.71300n   -4.5703u 
    3.71400n   -4.5653u 
    3.71500n   -4.5603u 
    3.71600n   -4.5552u 
    3.71700n   -4.5502u 
    3.71800n   -4.5452u 
    3.71900n   -4.5402u 
    3.72000n   -4.5351u 
    3.72100n   -4.5301u 
    3.72200n   -4.5251u 
    3.72300n   -4.5201u 
    3.72400n   -4.5151u 
    3.72500n   -4.5100u 
    3.72600n   -4.5050u 
    3.72700n   -4.5000u 
    3.72800n   -4.4950u 
    3.72900n   -4.4899u 
    3.73000n   -4.4849u 
    3.73100n   -4.4799u 
    3.73200n   -4.4749u 
    3.73300n   -4.4699u 
    3.73400n   -4.4648u 
    3.73500n   -4.4598u 
    3.73600n   -4.4548u 
    3.73700n   -4.4498u 
    3.73800n   -4.4447u 
    3.73900n   -4.4397u 
    3.74000n   -4.4347u 
    3.74100n   -4.4297u 
    3.74200n   -4.4247u 
    3.74300n   -4.4196u 
    3.74400n   -4.4146u 
    3.74500n   -4.4096u 
    3.74600n   -4.4046u 
    3.74700n   -4.3996u 
    3.74800n   -4.3945u 
    3.74900n   -4.3895u 
    3.75000n   -4.3845u 
    3.75100n   -4.3795u 
    3.75200n   -4.3744u 
    3.75300n   -4.3694u 
    3.75400n   -4.3644u 
    3.75500n   -4.3478u 
    3.75600n   -4.3208u 
    3.75700n   -4.2938u 
    3.75800n   -4.2669u 
    3.75900n   -4.2399u 
    3.76000n   -4.2129u 
    3.76100n   -4.1860u 
    3.76200n   -4.1590u 
    3.76300n   -4.1320u 
    3.76400n   -4.1050u 
    3.76500n   -4.0781u 
    3.76600n   -4.0511u 
    3.76700n   -4.0241u 
    3.76800n   -3.9972u 
    3.76900n   -3.9702u 
    3.77000n   -3.9432u 
    3.77100n   -3.9162u 
    3.77200n   -3.8893u 
    3.77300n   -3.8623u 
    3.77400n   -3.8353u 
    3.77500n   -3.8084u 
    3.77600n   -3.7814u 
    3.77700n   -3.7544u 
    3.77800n   -3.7275u 
    3.77900n   -3.7005u 
    3.78000n   -3.6735u 
    3.78100n   -3.6465u 
    3.78200n   -3.6196u 
    3.78300n   -3.5926u 
    3.78400n   -3.5656u 
    3.78500n   -3.5387u 
    3.78600n   -3.5117u 
    3.78700n   -3.4847u 
    3.78800n   -3.4577u 
    3.78900n   -3.4308u 
    3.79000n   -3.4038u 
    3.79100n   -3.3768u 
    3.79200n   -3.3499u 
    3.79300n   -3.3229u 
    3.79400n   -3.2959u 
    3.79500n   -3.2689u 
    3.79600n   -3.2420u 
    3.79700n   -3.2150u 
    3.79800n   -3.1880u 
    3.79900n   -3.1611u 
    3.80000n   -3.1341u 
    3.80100n   -3.1071u 
    3.80200n   -3.0801u 
    3.80300n   -3.0532u 
    3.80400n   -3.0262u 
    3.80500n   -2.9992u 
    3.80600n   -2.9723u 
    3.80700n   -2.9453u 
    3.80800n   -2.9183u 
    3.80900n   -2.8913u 
    3.81000n   -2.8644u 
    3.81100n   -2.8374u 
    3.81200n   -2.8104u 
    3.81300n   -2.7835u 
    3.81400n   -2.7565u 
    3.81500n   -2.7295u 
    3.81600n   -2.7026u 
    3.81700n   -2.6756u 
    3.81800n   -2.6486u 
    3.81900n   -2.6216u 
    3.82000n   -2.5947u 
    3.82100n   -2.5677u 
    3.82200n   -2.5407u 
    3.82300n   -2.5138u 
    3.82400n   -2.4868u 
    3.82500n   -2.4598u 
    3.82600n   -2.4328u 
    3.82700n   -2.4059u 
    3.82800n   -2.3789u 
    3.82900n   -2.3519u 
    3.83000n   -2.3476u 
    3.83100n   -2.3472u 
    3.83200n   -2.3467u 
    3.83300n   -2.3463u 
    3.83400n   -2.3459u 
    3.83500n   -2.3455u 
    3.83600n   -2.3451u 
    3.83700n   -2.3446u 
    3.83800n   -2.3442u 
    3.83900n   -2.3438u 
    3.84000n   -2.3434u 
    3.84100n   -2.3430u 
    3.84200n   -2.3426u 
    3.84300n   -2.3421u 
    3.84400n   -2.3417u 
    3.84500n   -2.3413u 
    3.84600n   -2.3409u 
    3.84700n   -2.3405u 
    3.84800n   -2.3401u 
    3.84900n   -2.3396u 
    3.85000n   -2.3392u 
    3.85100n   -2.3388u 
    3.85200n   -2.3384u 
    3.85300n   -2.3380u 
    3.85400n   -2.3376u 
    3.85500n   -2.3371u 
    3.85600n   -2.3367u 
    3.85700n   -2.3363u 
    3.85800n   -2.3359u 
    3.85900n   -2.3355u 
    3.86000n   -2.3350u 
    3.86100n   -2.3346u 
    3.86200n   -2.3342u 
    3.86300n   -2.3338u 
    3.86400n   -2.3334u 
    3.86500n   -2.3330u 
    3.86600n   -2.3325u 
    3.86700n   -2.3321u 
    3.86800n   -2.3317u 
    3.86900n   -2.3313u 
    3.87000n   -2.3309u 
    3.87100n   -2.3305u 
    3.87200n   -2.3300u 
    3.87300n   -2.3296u 
    3.87400n   -2.3292u 
    3.87500n   -2.3288u 
    3.87600n   -2.3284u 
    3.87700n   -2.3280u 
    3.87800n   -2.3275u 
    3.87900n   -2.3271u 
    3.88000n   -2.3267u 
    3.88100n   -2.3263u 
    3.88200n   -2.3259u 
    3.88300n   -2.3255u 
    3.88400n   -2.3250u 
    3.88500n   -2.3246u 
    3.88600n   -2.3242u 
    3.88700n   -2.3238u 
    3.88800n   -2.3234u 
    3.88900n   -2.3229u 
    3.89000n   -2.3225u 
    3.89100n   -2.3221u 
    3.89200n   -2.3217u 
    3.89300n   -2.3213u 
    3.89400n   -2.3209u 
    3.89500n   -2.3204u 
    3.89600n   -2.3200u 
    3.89700n   -2.3196u 
    3.89800n   -2.3192u 
    3.89900n   -2.3188u 
    3.90000n   -2.3184u 
    3.90100n   -2.3179u 
    3.90200n   -2.3175u 
    3.90300n   -2.3171u 
    3.90400n   -2.3167u 
    3.90500n   -2.3163u 
    3.90600n   -2.3159u 
    3.90700n   -2.3154u 
    3.90800n   -2.3150u 
    3.90900n   -2.3146u 
    3.91000n   -2.3142u 
    3.91100n   -2.3138u 
    3.91200n   -2.3133u 
    3.91300n   -2.3129u 
    3.91400n   -2.3125u 
    3.91500n   -2.3121u 
    3.91600n   -2.3117u 
    3.91700n   -2.3113u 
    3.91800n   -2.3108u 
    3.91900n   -2.3104u 
    3.92000n   -2.3100u 
    3.92100n   -2.3096u 
    3.92200n   -2.3092u 
    3.92300n   -2.3088u 
    3.92400n   -2.3083u 
    3.92500n   -2.3079u 
    3.92600n   -2.2920u 
    3.92700n   -2.2702u 
    3.92800n   -2.2484u 
    3.92900n   -2.2265u 
    3.93000n   -2.2047u 
    3.93100n   -2.1829u 
    3.93200n   -2.1611u 
    3.93300n   -2.1392u 
    3.93400n   -2.1174u 
    3.93500n   -2.0956u 
    3.93600n   -2.0738u 
    3.93700n   -2.0519u 
    3.93800n   -2.0301u 
    3.93900n   -2.0083u 
    3.94000n   -1.9865u 
    3.94100n   -1.9646u 
    3.94200n   -1.9428u 
    3.94300n   -1.9210u 
    3.94400n   -1.8992u 
    3.94500n   -1.8773u 
    3.94600n   -1.8555u 
    3.94700n   -1.8337u 
    3.94800n   -1.8118u 
    3.94900n   -1.7900u 
    3.95000n   -1.7682u 
    3.95100n   -1.7464u 
    3.95200n   -1.7245u 
    3.95300n   -1.7027u 
    3.95400n   -1.6809u 
    3.95500n   -1.6591u 
    3.95600n   -1.6372u 
    3.95700n   -1.6154u 
    3.95800n   -1.5936u 
    3.95900n   -1.5718u 
    3.96000n   -1.5499u 
    3.96100n   -1.5281u 
    3.96200n   -1.5063u 
    3.96300n   -1.4845u 
    3.96400n   -1.4626u 
    3.96500n   -1.4408u 
    3.96600n   -1.4190u 
    3.96700n   -1.3971u 
    3.96800n   -1.3753u 
    3.96900n   -1.3535u 
    3.97000n   -1.3317u 
    3.97100n   -1.3098u 
    3.97200n   -1.2880u 
    3.97300n   -1.2662u 
    3.97400n   -1.2444u 
    3.97500n   -1.2225u 
    3.97600n   -1.2007u 
    3.97700n   -1.1789u 
    3.97800n   -1.1571u 
    3.97900n   -1.1352u 
    3.98000n   -1.1134u 
    3.98100n   -1.0916u 
    3.98200n   -1.0698u 
    3.98300n   -1.0479u 
    3.98400n   -1.0261u 
    3.98500n   -1.0043u 
    3.98600n -982.4447n 
    3.98700n -960.6183n 
    3.98800n -938.7919n 
    3.98848n -928.3153n 
y
 meas_current_selected=-108.7232f  from=   0.             to=   3.9885n
 meas_avg_power_selected=  27.2593u
 meas_current_unselected=-184.6891f  from=   0.             to=   3.9885n
 meas_avg_power_unselected=  46.3056u

          ***** job concluded
 ****** HSPICE -- K-2015.06-SP2 linux64 (Nov 18 2015) ******                    
 ******  
 .title sram write power measurement circuit

 ****** job statistics summary tnom=  25.000 temp=  25.000 ******
  
  
 ******  Machine Information  ******
 CPU:
 model name	: Intel(R) Xeon(R) CPU E7- 4850  @ 2.00GHz
 cpu MHz	: 1994.935
  
 OS:
 Linux version 2.6.32-754.29.2.el6.x86_64 (mockbuild@x86-02.bsys.centos.org) (gcc version 4.4.7 20120313 (Red Hat 4.4.7-23) (GCC) ) #1 SMP Tue May 12 17:39:04 UTC 2020


  ******  HSPICE Threads Information  ******

  Command Line Threads Count :     1
  Available CPU Count        :    80
  Actual Threads Count       :     1


  ******  Circuit Statistics  ******
  # nodes       =   18668 # elements   =    7234
  # resistors   =    1029 # capacitors =    2048 # inductors   =       0
  # mutual_inds =       0 # vccs       =       0 # vcvs        =       0
  # cccs        =       0 # ccvs       =       0 # volt_srcs   =      10
  # curr_srcs   =       0 # diodes     =       0 # bjts        =       0
  # jfets       =       0 # mosfets    =    4147 # U elements  =       0
  # T elements  =       0 # W elements =       0 # B elements  =       0
  # S elements  =       0 # P elements =       0 # va device   =       0
  # vector_srcs =       0 # N elements =       0


  ******  Runtime Statistics (seconds)  ******

  analysis           time    # points   tot. iter  conv.iter
  op point           0.20           1           8
  transient          6.17        3989         800         282 rev=         9
  readin             0.22
  errchk             0.40
  setup              0.68
  output             0.01


           peak memory used        238.66 megabytes
           total cpu time            7.82 seconds
           total elapsed time        7.58 seconds
           job started at     15:18:15 07/08/2020
           job ended   at     15:18:23 07/08/2020



>info:         ***** hspice job concluded
 lic: Release hspice token(s) 
 lic: total license checkout elapse time:        0.24(s)
