Using: /usr/local/packages/synopsys_2018/hspice/O-2018.09-SP1/hspice/linux64/hspice xconfigurabledecoderiii.sp
 ****** HSPICE -- O-2018.09-SP1 linux64 (Nov 25 2018) ******                    
  Copyright (c) 1986 - 2023 by Synopsys, Inc. All Rights Reserved.              
  This software and the associated documentation are proprietary
  to Synopsys, Inc. This software may only be used in accordance
  with the terms and conditions of a written license agreement with
  Synopsys, Inc. All other use, reproduction, or distribution of
  this software is strictly prohibited.
  Input File: xconfigurabledecoderiii.sp                                        
  Command line options: /usr/local/packages/synopsys_2018/hspice/O-2018.09-SP1/hspice/linux64/hspice xconfigurabledecoderiii.sp
  Start time: Thu Feb  2 11:34:34 2023
 lic:  
 lic: FLEXlm: SDK_11.6.9.6 
 lic: USER:   aarora1              HOSTNAME: koopa.ece.utexas.edu 
 lic: HOSTID: "e4434bc49dca"       PID:      284060 
 lic: Using FLEXlm license file: 
 lic: /usr/local/packages/synopsys_2018/key 
 lic: Checkout 1 hspice 
 lic: License/Maintenance for hspice will expire on 14-jan-2025/2022.06 
 lic: 1(in_use)/100(total) FLOATING license(s) on SERVER /usr/local/packages/synopsys_2018/key 
 lic:   
  **info** (xconfigurabledecoderiii.sp:17) DC voltage reset to initial transient source value in source 0:vin. new dc=0.0000D+00
  **warning** (v_$vin:0) pulse rise time is  < or = zero, reset to tstep
  **warning** (v_$vin:0) pulse fall time is  < or = zero, reset to tstep
  **warning** (nmos:mntgate (../basic_subcircuits.l:162)) Warning:  Acde = 0.245565 may be too small in BSIM4 model with w=2e-07 l=2.2e-08.
  

  **warning** the following singular supplies were terminated to 1 meg resistor 
          supply       node1            node2
(../process_data.l:34)vclmomtjn               0:vclmpmtj         defined in subckt 0                     0:0                defined in subckt 0               
(../process_data.l:29)vsupply                 0:vdd              defined in subckt 0                     0:0                defined in subckt 0               
(../process_data.l:33)vrefmtjn                0:vrefmtj          defined in subckt 0                     0:0                defined in subckt 0               
(../process_data.l:32)vsram                   0:vsram            defined in subckt 0                     0:0                defined in subckt 0               
(../process_data.l:35)vsram_n                 0:vsram_n          defined in subckt 0                     0:0                defined in subckt 0               
      
  **warning** (v_$vin:0) pulse rise time is  < or = zero, reset to tstep
  **warning** (v_$vin:0) pulse fall time is  < or = zero, reset to tstep

Element variations(Local):   element              parameter
 **info** set option symb=1 internally to help for convergence.
 *****************************************************************
 ******  option summary
 ******
 runlvl  = 3         bypass  = 2.0000    
             
 Summary of Linear Res Distribution Info
 ---------------------------------------
 |Range          |Total     |Percent(%)|
 |---------------+----------+----------|
 |1e+00  ~  1e+03|78        |93.9759   |
 |1e+05  ~  1e+06|5         |6.0241    |
 ---------------------------------------
              
             
 Summary of Linear Cap Distribution Info
 ---------------------------------------
 |Range          |Total     |Percent(%)|
 |---------------+----------+----------|
 |1e-17  ~  1e-16|28        |17.9487   |
 |1e-16  ~  1e-15|128       |82.0513   |
 ---------------------------------------
              
             
 Summary of Detailed RC Type Statistics
 -----------------------------
 |Element Type    |Number    |
 |----------------+----------|
 |Constant Res    |78        |
 |Other Linear Res|5         |
 |                |          |
 |Constant Cap    |156       |
 -----------------------------
              
 **info** dc convergence successful at Newton-Raphson method 

   *** data name = sweep_data , index =     1 ***

 ******
 .title last stage of configurable decoder

 ****** transient analysis tnom=  25.000 temp=  25.000 ******
 meaz1_inv_nand2_xconfigurabledecoderiii_1_tfall=  57.1292p  targ= 140.0298p   trig=  82.9005p
 meaz1_inv_nand2_xconfigurabledecoderiii_1_trise=  42.1149p  targ=   2.0956n   trig=   2.0534n
 meaz1_inv_xconfigurabledecoderiii_2_tfall= 105.7053p  targ=   2.1591n   trig=   2.0534n
 meaz1_inv_xconfigurabledecoderiii_2_trise= 153.0347p  targ= 235.9353p   trig=  82.9005p
 meaz1_total_tfall= 130.2107p  targ=   2.1836n   trig=   2.0534n
 meaz1_total_trise= 178.0528p  targ= 260.9533p   trig=  82.9005p
 meaz2_inv_nand2_xconfigurabledecoderiii_1_tfall=  64.8294p  targ= 131.3676p   trig=  66.5381p
 meaz2_inv_nand2_xconfigurabledecoderiii_1_trise=  46.3057p  targ=   2.0974n   trig=   2.0511n
 meaz2_inv_xconfigurabledecoderiii_2_tfall= 110.6047p  targ=   2.1617n   trig=   2.0511n
 meaz2_inv_xconfigurabledecoderiii_2_trise= 161.5055p  targ= 228.0436p   trig=  66.5381p
 meaz2_total_tfall= 134.9941p  targ=   2.1861n   trig=   2.0511n
 meaz2_total_trise= 186.1688p  targ= 252.7070p   trig=  66.5381p
 meas_logic_low_voltage=   0.        
 meaz1_current= -16.6271f  from=   0.             to=   4.0000n
 meaz1_avg_power=   4.1568u
 meaz2_current= -16.6199f  from=   0.             to=   4.0000n
 meaz2_avg_power=   4.1550u

          ***** job concluded
1****** HSPICE -- O-2018.09-SP1 linux64 (Nov 25 2018) ******                    
 ******  
 .title last stage of configurable decoder

 ****** job statistics summary tnom=  25.000 temp=  25.000 ******
  
 ******  Machine Information  ******
 CPU:
 model name	: Intel(R) Xeon(R) Gold 5218 CPU @ 2.30GHz
 cpu MHz	: 3215.704
  
 OS:
 Linux version 3.10.0-1160.81.1.el7.x86_64 (mockbuild@kbuilder.bsys.centos.org) (gcc version 4.8.5 20150623 (Red Hat 4.8.5-44) (GCC) ) #1 SMP Fri Dec 16 17:29:43 UTC 2022


  ******  HSPICE Threads Information  ******

  Command Line Threads Count :     1
  Available CPU Count        :    64
  Actual Threads Count       :     1


  ******  Circuit Statistics  ******
  # nodes       =     491 # elements   =     338
  # resistors   =      83 # capacitors =     156 # inductors   =       0
  # mutual_inds =       0 # vccs       =       0 # vcvs        =       0
  # cccs        =       0 # ccvs       =       0 # volt_srcs   =       9
  # curr_srcs   =       0 # diodes     =       0 # bjts        =       0
  # jfets       =       0 # mosfets    =      90 # U elements  =       0
  # T elements  =       0 # W elements =       0 # B elements  =       0
  # S elements  =       0 # P elements =       0 # va device   =       0
  # vector_srcs =       0 # N elements =       0


  ******  Runtime Statistics (seconds)  ******

  analysis           time    # points   tot. iter  conv.iter
  op point           0.01           1          20
  transient          0.11        4001         285         106 rev=         1
  readin             0.07
  errchk             0.02
  setup              0.00
  output             0.00


           peak memory used        294.69 megabytes
           total cpu time            0.21 seconds
           total elapsed time        0.16 seconds
           job started at     11:34:34 02/02/2023
           job ended   at     11:34:34 02/02/2023



>info:         ***** hspice job concluded
 lic: Release hspice token(s) 
 lic: total license checkout elapse time:        0.03(s)
