Using: /usr/local/packages/synopsys_2015/hspice/hspice/linux64/hspice xconfigurabledecoder2ii.sp
 ****** HSPICE -- K-2015.06-SP2 linux64 (Nov 18 2015) ******                    
  Copyright (c) 1986 - 2020 by Synopsys, Inc. All Rights Reserved.              
  This software and the associated documentation are proprietary
  to Synopsys, Inc. This software may only be used in accordance
  with the terms and conditions of a written license agreement with
  Synopsys, Inc. All other use, reproduction, or distribution of
  this software is strictly prohibited.
  Input File: xconfigurabledecoder2ii.sp                                        
  Command line options: /usr/local/packages/synopsys_2015/hspice/hspice/linux64/hspice xconfigurabledecoder2ii.sp
 lic:  
 lic: FLEXlm: v11.2.1 
 lic: USER:   aarora1              HOSTNAME: luigi 
 lic: HOSTID: "782bcb44a06e"       PID:      39431 
 lic: Using FLEXlm license file: 
 lic: /usr/local/packages/synopsys_2015/key 
 lic: Checkout 1 hspice 
 lic: License/Maintenance for hspice will expire on 14-jan-2021/2019.06 
 lic: 1(in_use)/100(total) FLOATING license(s) on SERVER /usr/local/packages/synopsys_2015/key 
 lic:   
 Init: read install configuration file: /usr/local/packages/synopsys_2015/hspice/hspice/meta.cfg
  **info** (xconfigurabledecoder2ii.sp:17) DC voltage reset to initial transient source value in source        0:vin. new dc=  0.0000D+00
  **warning** (v_$vin:0) pulse rise time is  < or = zero, reset to tstep
  **warning** (v_$vin:0) pulse fall time is  < or = zero, reset to tstep
  **warning** (nmos_lp:mndown (../basic_subcircuits.l:70)) Warning:  Acde = 0.245565 may be too small in BSIM4 model with w=2.25e-07 l=2.2e-08.
  

  **warning** the following singular supplies were terminated to 1 meg resistor 
          supply       node1            node2
(../process_data.l:34)vclmomtjn               0:vclmpmtj         defined in subckt 0                     0:0                defined in subckt 0               
(../process_data.l:29)vsupply                 0:vdd              defined in subckt 0                     0:0                defined in subckt 0               
(../process_data.l:33)vrefmtjn                0:vrefmtj          defined in subckt 0                     0:0                defined in subckt 0               
(../process_data.l:32)vsram                   0:vsram            defined in subckt 0                     0:0                defined in subckt 0               
(../process_data.l:35)vsram_n                 0:vsram_n          defined in subckt 0                     0:0                defined in subckt 0               
      
  **warning** (v_$vin:0) pulse rise time is  < or = zero, reset to tstep
  **warning** (v_$vin:0) pulse fall time is  < or = zero, reset to tstep
 **info** set option symb=1 internally to help for convergence.
 *****************************************************************
 ******  option summary
 ******
 runlvl  = 3         bypass  = 2         
 **info** dc convergence successful at Newton-Raphson method 

   *** data name = sweep_data , index =     1 ***

 ******
 .title second stage in configurable decoder

 ****** transient analysis tnom=  25.000 temp=  25.000 ******
 meas_inv_nand2_xconfigurabledecoder2ii_1_tfall=  38.2891p  targ=   2.0496n   trig=   2.0113n
 meas_inv_nand2_xconfigurabledecoder2ii_1_trise=  35.0300p  targ=  45.4694p   trig=  10.4394p
 meas_inv_xconfigurabledecoder2ii_2_tfall=  97.8924p  targ= 108.3318p   trig=  10.4394p
 meas_inv_xconfigurabledecoder2ii_2_trise= 106.8272p  targ=   2.1181n   trig=   2.0113n
 meas_total_tfall=  97.8924p  targ= 108.3318p   trig=  10.4394p
 meas_total_trise= 106.8272p  targ=   2.1181n   trig=   2.0113n
 meas_logic_low_voltage=   0.     
 meas_current= -14.7579f  from=   0.             to=   4.0000n
 meas_avg_power=   3.6895u

          ***** job concluded
 ****** HSPICE -- K-2015.06-SP2 linux64 (Nov 18 2015) ******                    
 ******  
 .title second stage in configurable decoder

 ****** job statistics summary tnom=  25.000 temp=  25.000 ******
  
  
 ******  Machine Information  ******
 CPU:
 model name	: Intel(R) Xeon(R) CPU E7- 4850  @ 2.00GHz
 cpu MHz	: 1994.935
  
 OS:
 Linux version 2.6.32-754.29.2.el6.x86_64 (mockbuild@x86-02.bsys.centos.org) (gcc version 4.4.7 20120313 (Red Hat 4.4.7-23) (GCC) ) #1 SMP Tue May 12 17:39:04 UTC 2020


  ******  HSPICE Threads Information  ******

  Command Line Threads Count :     1
  Available CPU Count        :    80
  Actual Threads Count       :     1


  ******  Circuit Statistics  ******
  # nodes       =    3638 # elements   =    1175
  # resistors   =     133 # capacitors =     256 # inductors   =       0
  # mutual_inds =       0 # vccs       =       0 # vcvs        =       0
  # cccs        =       0 # ccvs       =       0 # volt_srcs   =       8
  # curr_srcs   =       0 # diodes     =       0 # bjts        =       0
  # jfets       =       0 # mosfets    =     778 # U elements  =       0
  # T elements  =       0 # W elements =       0 # B elements  =       0
  # S elements  =       0 # P elements =       0 # va device   =       0
  # vector_srcs =       0 # N elements =       0


  ******  Runtime Statistics (seconds)  ******

  analysis           time    # points   tot. iter  conv.iter
  op point           0.06           1           4
  transient          1.21        4001         298         109 rev=         3
  readin             0.07
  errchk             0.08
  setup              0.06
  output             0.01


           peak memory used        205.19 megabytes
           total cpu time            1.48 seconds
           total elapsed time        1.15 seconds
           job started at     15:04:57 07/08/2020
           job ended   at     15:04:59 07/08/2020



>info:         ***** hspice job concluded
 lic: Release hspice token(s) 
 lic: total license checkout elapse time:        0.25(s)
