Using: /usr/local/packages/synopsys_2015/hspice/hspice/linux64/hspice lut.sp
 ****** HSPICE -- K-2015.06-SP2 linux64 (Nov 18 2015) ******                    
  Copyright (c) 1986 - 2020 by Synopsys, Inc. All Rights Reserved.              
  This software and the associated documentation are proprietary
  to Synopsys, Inc. This software may only be used in accordance
  with the terms and conditions of a written license agreement with
  Synopsys, Inc. All other use, reproduction, or distribution of
  this software is strictly prohibited.
  Input File: lut.sp                                                            
  Command line options: /usr/local/packages/synopsys_2015/hspice/hspice/linux64/hspice lut.sp
 lic:  
 lic: FLEXlm: v11.2.1 
 lic: USER:   aarora1              HOSTNAME: luigi 
 lic: HOSTID: "782bcb44a06e"       PID:      21253 
 lic: Using FLEXlm license file: 
 lic: /usr/local/packages/synopsys_2015/key 
 lic: Checkout 1 hspice 
 lic: License/Maintenance for hspice will expire on 14-jan-2021/2019.06 
 lic: 2(in_use)/100(total) FLOATING license(s) on SERVER /usr/local/packages/synopsys_2015/key 
 lic:   
 Init: read install configuration file: /usr/local/packages/synopsys_2015/hspice/hspice/meta.cfg
  **info** (lut.sp:17) DC voltage reset to initial transient source value in source        0:vin. new dc=  0.0000D+00
  **warning** (v_$vin:0) pulse rise time is  < or = zero, reset to tstep
  **warning** (v_$vin:0) pulse fall time is  < or = zero, reset to tstep
  **warning** (nmos:mndown (../basic_subcircuits.l:61)) Warning:  Acde = 0.245565 may be too small in BSIM4 model with w=4.5e-08 l=2.2e-08.
  

  **warning** the following singular supplies were terminated to 1 meg resistor 
          supply       node1            node2
(../process_data.l:34)vclmomtjn               0:vclmpmtj         defined in subckt 0                     0:0                defined in subckt 0               
(../process_data.l:30)vsupplylp               0:vdd_lp           defined in subckt 0                     0:0                defined in subckt 0               
(../process_data.l:33)vrefmtjn                0:vrefmtj          defined in subckt 0                     0:0                defined in subckt 0               
      
  **warning** (v_$vin:0) pulse rise time is  < or = zero, reset to tstep
  **warning** (v_$vin:0) pulse fall time is  < or = zero, reset to tstep
 **info** set option symb=1 internally to help for convergence.
 *****************************************************************
 ******  option summary
 ******
 runlvl  = 3         bypass  = 2         
 **info** dc convergence successful at Newton-Raphson method 

   *** data name = sweep_data , index =     1 ***

 ******
 .title 5-lut

 ****** transient analysis tnom=  25.000 temp=  25.000 ******
 meas_inv_lut_0sram_driver_1_tfall=   4.3225p  targ=   4.8225p   trig= 500.0000f
 meas_inv_lut_0sram_driver_1_trise=   4.4230p  targ=   2.0059n   trig=   2.0015n
 meas_inv_lut_0sram_driver_2_tfall=  10.7470p  targ=   2.0122n   trig=   2.0015n
 meas_inv_lut_0sram_driver_2_trise=  10.9789p  targ=  11.4789p   trig= 500.0000f
 meas_inv_lut_int_buffer_1_tfall=  76.8024p  targ=  77.3024p   trig= 500.0000f
 meas_inv_lut_int_buffer_1_trise=  69.9313p  targ=   2.0714n   trig=   2.0015n
 meas_inv_lut_int_buffer_2_tfall=  81.6912p  targ=   2.0832n   trig=   2.0015n
 meas_inv_lut_int_buffer_2_trise=  85.4846p  targ=  85.9846p   trig= 500.0000f
 meas_inv_lut_out_buffer_1_tfall= 126.6398p  targ= 127.1398p   trig= 500.0000f
 meas_inv_lut_out_buffer_1_trise= 123.5412p  targ=   2.1250n   trig=   2.0015n
 meas_inv_lut_out_buffer_2_tfall= 141.4017p  targ=   2.1429n   trig=   2.0015n
 meas_inv_lut_out_buffer_2_trise= 142.8131p  targ= 143.3131p   trig= 500.0000f
 meas_total_tfall= 141.4017p  targ=   2.1429n   trig=   2.0015n
 meas_total_trise= 142.8131p  targ= 143.3131p   trig= 500.0000f
 meas_logic_low_voltage= 161.0234u

          ***** job concluded
 ****** HSPICE -- K-2015.06-SP2 linux64 (Nov 18 2015) ******                    
 ******  
 .title 5-lut

 ****** job statistics summary tnom=  25.000 temp=  25.000 ******
  
  
 ******  Machine Information  ******
 CPU:
 model name	: Intel(R) Xeon(R) CPU E7- 4850  @ 2.00GHz
 cpu MHz	: 1994.935
  
 OS:
 Linux version 2.6.32-754.29.2.el6.x86_64 (mockbuild@x86-02.bsys.centos.org) (gcc version 4.4.7 20120313 (Red Hat 4.4.7-23) (GCC) ) #1 SMP Tue May 12 17:39:04 UTC 2020


  ******  HSPICE Threads Information  ******

  Command Line Threads Count :     1
  Available CPU Count        :    80
  Actual Threads Count       :     1


  ******  Circuit Statistics  ******
  # nodes       =     377 # elements   =     202
  # resistors   =      42 # capacitors =      78 # inductors   =       0
  # mutual_inds =       0 # vccs       =       0 # vcvs        =       0
  # cccs        =       0 # ccvs       =       0 # volt_srcs   =       7
  # curr_srcs   =       0 # diodes     =       0 # bjts        =       0
  # jfets       =       0 # mosfets    =      75 # U elements  =       0
  # T elements  =       0 # W elements =       0 # B elements  =       0
  # S elements  =       0 # P elements =       0 # va device   =       0
  # vector_srcs =       0 # N elements =       0


  ******  Runtime Statistics (seconds)  ******

  analysis           time    # points   tot. iter  conv.iter
  op point           0.00           1           7
  transient          0.15        4001         314         112 rev=         2
  readin             0.08
  errchk             0.03
  setup              0.00
  output             0.00


           peak memory used        198.15 megabytes
           total cpu time            0.27 seconds
           total elapsed time        0.41 seconds
           job started at     13:50:15 07/08/2020
           job ended   at     13:50:15 07/08/2020



>info:         ***** hspice job concluded
 lic: Release hspice token(s) 
 lic: total license checkout elapse time:        0.25(s)
