Using: /usr/local/packages/synopsys_2018/hspice/O-2018.09-SP1/hspice/linux64/hspice pgateoutputcrossbar.sp
 ****** HSPICE -- O-2018.09-SP1 linux64 (Nov 25 2018) ******                    
  Copyright (c) 1986 - 2023 by Synopsys, Inc. All Rights Reserved.              
  This software and the associated documentation are proprietary
  to Synopsys, Inc. This software may only be used in accordance
  with the terms and conditions of a written license agreement with
  Synopsys, Inc. All other use, reproduction, or distribution of
  this software is strictly prohibited.
  Input File: pgateoutputcrossbar.sp                                            
  Command line options: /usr/local/packages/synopsys_2018/hspice/O-2018.09-SP1/hspice/linux64/hspice pgateoutputcrossbar.sp
  Start time: Thu Feb  2 11:34:34 2023
 lic:  
 lic: FLEXlm: SDK_11.6.9.6 
 lic: USER:   aarora1              HOSTNAME: koopa.ece.utexas.edu 
 lic: HOSTID: "e4434bc49dca"       PID:      284108 
 lic: Using FLEXlm license file: 
 lic: /usr/local/packages/synopsys_2018/key 
 lic: Checkout 1 hspice 
 lic: License/Maintenance for hspice will expire on 14-jan-2025/2022.06 
 lic: 1(in_use)/100(total) FLOATING license(s) on SERVER /usr/local/packages/synopsys_2018/key 
 lic:   
  **info** (pgateoutputcrossbar.sp:17) DC voltage reset to initial transient source value in source 0:vin. new dc=0.0000D+00
  **warning** (v_$vin:0) pulse rise time is  < or = zero, reset to tstep
  **warning** (v_$vin:0) pulse fall time is  < or = zero, reset to tstep
  **warning** (nmos:mndown (../basic_subcircuits.l:61)) Warning:  Acde = 0.245565 may be too small in BSIM4 model with w=4.5e-08 l=2.2e-08.
  

  **warning** the following singular supplies were terminated to 1 meg resistor 
          supply       node1            node2
(../process_data.l:34)vclmomtjn               0:vclmpmtj         defined in subckt 0                     0:0                defined in subckt 0               
(../process_data.l:30)vsupplylp               0:vdd_lp           defined in subckt 0                     0:0                defined in subckt 0               
(../process_data.l:33)vrefmtjn                0:vrefmtj          defined in subckt 0                     0:0                defined in subckt 0               
(../process_data.l:35)vsram_n                 0:vsram_n          defined in subckt 0                     0:0                defined in subckt 0               
             
 Warning:'No DC path nodes' occurs 1 times
 No DC path from the following nodes,connected with gdcpath:
 -----------------------
 |Node      |Subckt    |
 |----------+----------|
 |nnd       |0         |
 -----------------------
              
             
 Warning:'1 connection nodes' occurs 1 times
 Summary of 1 connection from the following nodes:
 ------------------------------------------------
 |Node                      |Subckt             |
 |--------------------------+-------------------|
 |xoutputcrossbar.n_hang_nbd|pgateoutputcrossbar|
 ------------------------------------------------
              
      
  **warning** (v_$vin:0) pulse rise time is  < or = zero, reset to tstep
  **warning** (v_$vin:0) pulse fall time is  < or = zero, reset to tstep

Element variations(Local):   element              parameter
 **info** set option symb=1 internally to help for convergence.
 *****************************************************************
 ******  option summary
 ******
 runlvl  = 3         bypass  = 2.0000    
             
 Summary of Linear Res Distribution Info
 ---------------------------------------
 |Range          |Total     |Percent(%)|
 |---------------+----------+----------|
 |1e+00  ~  1e+03|75        |94.9367   |
 |1e+05  ~  1e+06|4         |5.0633    |
 ---------------------------------------
              
             
 Summary of Linear Cap Distribution Info
 ---------------------------------------
 |Range          |Total     |Percent(%)|
 |---------------+----------+----------|
 |1e-17  ~  1e-16|142       |94.6667   |
 |1e-16  ~  1e-15|8         |5.3333    |
 ---------------------------------------
              
             
 Summary of Detailed RC Type Statistics
 -----------------------------
 |Element Type    |Number    |
 |----------------+----------|
 |Constant Res    |75        |
 |Other Linear Res|4         |
 |                |          |
 |Constant Cap    |150       |
 -----------------------------
              
 **info** dc convergence successful at Newton-Raphson method 

   *** data name = sweep_data , index =     1 ***

 ******
 .title a nand2 path

 ****** transient analysis tnom=  25.000 temp=  25.000 ******
 meas_inv_pgateoutputcrossbar_1_tfall=   7.8945p  targ=   2.0189n   trig=   2.0110n
 meas_inv_pgateoutputcrossbar_1_trise=   8.0904p  targ=  14.2574p   trig=   6.1670p
 meas_inv_pgateoutputcrossbar_2_tfall=  17.0938p  targ=  23.2608p   trig=   6.1670p
 meas_inv_pgateoutputcrossbar_2_trise=  17.4584p  targ=   2.0284n   trig=   2.0110n
 meas_inv_pgateoutputcrossbar_3_tfall=  27.6337p  targ=   2.0386n   trig=   2.0110n
 meas_inv_pgateoutputcrossbar_3_trise=  25.0638p  targ=  31.2308p   trig=   6.1670p
 meas_total_tfall= 166.0449p  targ= 172.2118p   trig=   6.1670p
 meas_total_trise=  64.9074p  targ=   2.0759n   trig=   2.0110n
 meas_logic_low_voltage=   0.        
 meas_current= -28.6505f  from=   0.             to=   4.0000n
 meas_avg_power=   2.8651u

          ***** job concluded
1****** HSPICE -- O-2018.09-SP1 linux64 (Nov 25 2018) ******                    
 ******  
 .title a nand2 path

 ****** job statistics summary tnom=  25.000 temp=  25.000 ******
  
 ******  Machine Information  ******
 CPU:
 model name	: Intel(R) Xeon(R) Gold 5218 CPU @ 2.30GHz
 cpu MHz	: 3295.440
  
 OS:
 Linux version 3.10.0-1160.81.1.el7.x86_64 (mockbuild@kbuilder.bsys.centos.org) (gcc version 4.8.5 20150623 (Red Hat 4.8.5-44) (GCC) ) #1 SMP Fri Dec 16 17:29:43 UTC 2022


  ******  HSPICE Threads Information  ******

  Command Line Threads Count :     1
  Available CPU Count        :    64
  Actual Threads Count       :     1


  ******  Circuit Statistics  ******
  # nodes       =    1175 # elements   =     473
  # resistors   =      79 # capacitors =     150 # inductors   =       0
  # mutual_inds =       0 # vccs       =       0 # vcvs        =       0
  # cccs        =       0 # ccvs       =       0 # volt_srcs   =       8
  # curr_srcs   =       0 # diodes     =       0 # bjts        =       0
  # jfets       =       0 # mosfets    =     236 # U elements  =       0
  # T elements  =       0 # W elements =       0 # B elements  =       0
  # S elements  =       0 # P elements =       0 # va device   =       0
  # vector_srcs =       0 # N elements =       0


  ******  Runtime Statistics (seconds)  ******

  analysis           time    # points   tot. iter  conv.iter
  op point           0.03           1           8
  transient          0.18        4001         279         106 rev=         2
  readin             0.03
  errchk             0.02
  setup              0.07
  output             0.00


           peak memory used        301.02 megabytes
           total cpu time            0.33 seconds
           total elapsed time        0.21 seconds
           job started at     11:34:34 02/02/2023
           job ended   at     11:34:34 02/02/2023



>info:         ***** hspice job concluded
 lic: Release hspice token(s) 
 lic: total license checkout elapse time:        0.03(s)
