Using: /usr/local/packages/synopsys_2018/hspice/O-2018.09-SP1/hspice/linux64/hspice sb_mux.sp
 ****** HSPICE -- O-2018.09-SP1 linux64 (Nov 25 2018) ******                    
  Copyright (c) 1986 - 2023 by Synopsys, Inc. All Rights Reserved.              
  This software and the associated documentation are proprietary
  to Synopsys, Inc. This software may only be used in accordance
  with the terms and conditions of a written license agreement with
  Synopsys, Inc. All other use, reproduction, or distribution of
  this software is strictly prohibited.
  Input File: sb_mux.sp                                                         
  Command line options: /usr/local/packages/synopsys_2018/hspice/O-2018.09-SP1/hspice/linux64/hspice sb_mux.sp
  Start time: Thu Feb  2 11:34:35 2023
 lic:  
 lic: FLEXlm: SDK_11.6.9.6 
 lic: USER:   aarora1              HOSTNAME: koopa.ece.utexas.edu 
 lic: HOSTID: "e4434bc49dca"       PID:      284211 
 lic: Using FLEXlm license file: 
 lic: /usr/local/packages/synopsys_2018/key 
 lic: Checkout 1 hspice 
 lic: License/Maintenance for hspice will expire on 14-jan-2025/2022.06 
 lic: 1(in_use)/100(total) FLOATING license(s) on SERVER /usr/local/packages/synopsys_2018/key 
 lic:   
  **info** (sb_mux.sp:17) DC voltage reset to initial transient source value in source 0:vin. new dc=0.0000D+00
  **warning** (v_$vin:0) pulse rise time is  < or = zero, reset to tstep
  **warning** (v_$vin:0) pulse fall time is  < or = zero, reset to tstep
  **warning** (nmos:mnpass (../basic_subcircuits.l:19)) Warning:  Acde = 0.245565 may be too small in BSIM4 model with w=1.35e-07 l=2.2e-08.
  
  **warning** No connections on node n_hang_2; Node ignored.

  **warning** the following singular supplies were terminated to 1 meg resistor 
          supply       node1            node2
(../process_data.l:34)vclmomtjn               0:vclmpmtj         defined in subckt 0                     0:0                defined in subckt 0               
(../process_data.l:30)vsupplylp               0:vdd_lp           defined in subckt 0                     0:0                defined in subckt 0               
(../process_data.l:33)vrefmtjn                0:vrefmtj          defined in subckt 0                     0:0                defined in subckt 0               
(../process_data.l:35)vsram_n                 0:vsram_n          defined in subckt 0                     0:0                defined in subckt 0               
      
  **warning** (v_$vin:0) pulse rise time is  < or = zero, reset to tstep
  **warning** (v_$vin:0) pulse fall time is  < or = zero, reset to tstep

Element variations(Local):   element              parameter
 *****************************************************************
 ******  option summary
 ******
 runlvl  = 3         bypass  = 2.0000    
             
 Summary of Linear Res Distribution Info
 ---------------------------------------
 |Range          |Total     |Percent(%)|
 |---------------+----------+----------|
 |1e+00  ~  1e+03|111       |72.5490   |
 |1e+03  ~  1e+05|32        |20.9150   |
 |1e+05  ~  1e+06|10        |6.5359    |
 ---------------------------------------
              
             
 Summary of Linear Cap Distribution Info
 ---------------------------------------
 |Range          |Total     |Percent(%)|
 |---------------+----------+----------|
 |1e-17  ~  1e-16|146       |51.0490   |
 |1e-16  ~  1e-15|12        |4.1958    |
 |1e-15  ~  1e-14|128       |44.7552   |
 ---------------------------------------
              
             
 Summary of Detailed RC Type Statistics
 -----------------------------
 |Element Type    |Number    |
 |----------------+----------|
 |Constant Res    |149       |
 |Other Linear Res|4         |
 |                |          |
 |Constant Cap    |286       |
 -----------------------------
              
 no convergence with standard algorithm,  trying damped pseudo-transient

  *** pseudo tran succeeded *** 

   *** data name = sweep_data , index =     1 ***

 ******
 .title switch block multiplexer

 ****** transient analysis tnom=  25.000 temp=  25.000 ******
 meas_inv_sb_mux_1_tfall=  11.9272p  targ= 201.9583p   trig= 190.0311p
 meas_inv_sb_mux_1_trise= 105.7561p  targ=   2.3063n   trig=   2.2006n
 meas_inv_sb_mux_2_tfall= 297.6283p  targ=   2.4982n   trig=   2.2006n
 meas_inv_sb_mux_2_trise= 184.2220p  targ= 374.2531p   trig= 190.0311p
 meas_total_tfall= 297.6283p  targ=   2.4982n   trig=   2.2006n
 meas_total_trise= 184.2220p  targ= 374.2531p   trig= 190.0311p
 meas_logic_low_voltage=  69.9367u
 meas_current=-140.6827f  from=   0.             to=   4.0000n
 meas_avg_power=  28.1365u

          ***** job concluded
1****** HSPICE -- O-2018.09-SP1 linux64 (Nov 25 2018) ******                    
 ******  
 .title switch block multiplexer

 ****** job statistics summary tnom=  25.000 temp=  25.000 ******
  
 ******  Machine Information  ******
 CPU:
 model name	: Intel(R) Xeon(R) Gold 5218 CPU @ 2.30GHz
 cpu MHz	: 3255.151
  
 OS:
 Linux version 3.10.0-1160.81.1.el7.x86_64 (mockbuild@kbuilder.bsys.centos.org) (gcc version 4.8.5 20150623 (Red Hat 4.8.5-44) (GCC) ) #1 SMP Fri Dec 16 17:29:43 UTC 2022


  ******  HSPICE Threads Information  ******

  Command Line Threads Count :     1
  Available CPU Count        :    64
  Actual Threads Count       :     1


  ******  Circuit Statistics  ******
  # nodes       =     774 # elements   =     595
  # resistors   =     153 # capacitors =     286 # inductors   =       0
  # mutual_inds =       0 # vccs       =       0 # vcvs        =       0
  # cccs        =       0 # ccvs       =       0 # volt_srcs   =       8
  # curr_srcs   =       0 # diodes     =       0 # bjts        =       0
  # jfets       =       0 # mosfets    =     148 # U elements  =       0
  # T elements  =       0 # W elements =       0 # B elements  =       0
  # S elements  =       0 # P elements =       0 # va device   =       0
  # vector_srcs =       0 # N elements =       0


  ******  Runtime Statistics (seconds)  ******

  analysis           time    # points   tot. iter  conv.iter
  op point           0.26           1         423
  transient          0.17        8001         422         158 rev=         2
  readin             0.05
  errchk             0.03
  setup              0.01
  output             0.00


           peak memory used        296.08 megabytes
           total cpu time            0.51 seconds
           total elapsed time        0.31 seconds
           job started at     11:34:35 02/02/2023
           job ended   at     11:34:36 02/02/2023



>info:         ***** hspice job concluded
 lic: Release hspice token(s) 
 lic: total license checkout elapse time:        0.04(s)
