Using: /usr/local/packages/synopsys_2015/hspice/hspice/linux64/hspice general_ble_output.sp
 ****** HSPICE -- K-2015.06-SP2 linux64 (Nov 18 2015) ******                    
  Copyright (c) 1986 - 2020 by Synopsys, Inc. All Rights Reserved.              
  This software and the associated documentation are proprietary
  to Synopsys, Inc. This software may only be used in accordance
  with the terms and conditions of a written license agreement with
  Synopsys, Inc. All other use, reproduction, or distribution of
  this software is strictly prohibited.
  Input File: general_ble_output.sp                                             
  Command line options: /usr/local/packages/synopsys_2015/hspice/hspice/linux64/hspice general_ble_output.sp
 lic:  
 lic: FLEXlm: v11.2.1 
 lic: USER:   aarora1              HOSTNAME: luigi 
 lic: HOSTID: "782bcb44a06e"       PID:      64575 
 lic: Using FLEXlm license file: 
 lic: /usr/local/packages/synopsys_2015/key 
 lic: Checkout 1 hspice 
 lic: License/Maintenance for hspice will expire on 14-jan-2021/2019.06 
 lic: 1(in_use)/100(total) FLOATING license(s) on SERVER /usr/local/packages/synopsys_2015/key 
 lic:   
 Init: read install configuration file: /usr/local/packages/synopsys_2015/hspice/hspice/meta.cfg
  **info** (general_ble_output.sp:17) DC voltage reset to initial transient source value in source        0:vin. new dc=  0.0000D+00
  **warning** (v_$vin:0) pulse rise time is  < or = zero, reset to tstep
  **warning** (v_$vin:0) pulse fall time is  < or = zero, reset to tstep
  **warning** (nmos:mndown (../basic_subcircuits.l:61)) Warning:  Acde = 0.245565 may be too small in BSIM4 model with w=4.5e-08 l=2.2e-08.
  

  **warning** the following singular supplies were terminated to 1 meg resistor 
          supply       node1            node2
(../process_data.l:34)vclmomtjn               0:vclmpmtj         defined in subckt 0                     0:0                defined in subckt 0               
(../process_data.l:30)vsupplylp               0:vdd_lp           defined in subckt 0                     0:0                defined in subckt 0               
(../process_data.l:33)vrefmtjn                0:vrefmtj          defined in subckt 0                     0:0                defined in subckt 0               
      
  **warning** (v_$vin:0) pulse rise time is  < or = zero, reset to tstep
  **warning** (v_$vin:0) pulse fall time is  < or = zero, reset to tstep
 **info** set option symb=1 internally to help for convergence.
 *****************************************************************
 ******  option summary
 ******
 runlvl  = 3         bypass  = 2         
 **info** dc convergence successful at Newton-Raphson method 

   *** data name = sweep_data , index =     1 ***

 ******
 .title general ble output

 ****** transient analysis tnom=  25.000 temp=  25.000 ******
 meas_inv_general_ble_output_1_tfall=  22.8994p  targ= 165.6541p   trig= 142.7546p
 meas_inv_general_ble_output_1_trise=  21.1948p  targ=   2.1638n   trig=   2.1426n
 meas_inv_general_ble_output_2_tfall=  34.9264p  targ=   2.1775n   trig=   2.1426n
 meas_inv_general_ble_output_2_trise=  35.4465p  targ= 178.2011p   trig= 142.7546p
 meas_total_tfall=  34.9264p  targ=   2.1775n   trig=   2.1426n
 meas_total_trise=  35.4465p  targ= 178.2011p   trig= 142.7546p
 meas_logic_low_voltage= 142.2207u
 meas_current=  -8.0795f  from=   0.             to=   4.0000n
 meas_avg_power=   1.6159u

          ***** job concluded
 ****** HSPICE -- K-2015.06-SP2 linux64 (Nov 18 2015) ******                    
 ******  
 .title general ble output

 ****** job statistics summary tnom=  25.000 temp=  25.000 ******
  
  
 ******  Machine Information  ******
 CPU:
 model name	: Intel(R) Xeon(R) CPU E7- 4850  @ 2.00GHz
 cpu MHz	: 1994.935
  
 OS:
 Linux version 2.6.32-754.29.2.el6.x86_64 (mockbuild@x86-02.bsys.centos.org) (gcc version 4.4.7 20120313 (Red Hat 4.4.7-23) (GCC) ) #1 SMP Tue May 12 17:39:04 UTC 2020


  ******  HSPICE Threads Information  ******

  Command Line Threads Count :     1
  Available CPU Count        :    80
  Actual Threads Count       :     1


  ******  Circuit Statistics  ******
  # nodes       =     494 # elements   =     283
  # resistors   =      61 # capacitors =     116 # inductors   =       0
  # mutual_inds =       0 # vccs       =       0 # vcvs        =       0
  # cccs        =       0 # ccvs       =       0 # volt_srcs   =       8
  # curr_srcs   =       0 # diodes     =       0 # bjts        =       0
  # jfets       =       0 # mosfets    =      98 # U elements  =       0
  # T elements  =       0 # W elements =       0 # B elements  =       0
  # S elements  =       0 # P elements =       0 # va device   =       0
  # vector_srcs =       0 # N elements =       0


  ******  Runtime Statistics (seconds)  ******

  analysis           time    # points   tot. iter  conv.iter
  op point           0.03           1           7
  transient          0.20        4001         358         127 rev=         1
  readin             0.09
  errchk             0.04
  setup              0.00
  output             0.00


           peak memory used        198.61 megabytes
           total cpu time            0.35 seconds
           total elapsed time        0.48 seconds
           job started at     14:08:30 07/08/2020
           job ended   at     14:08:30 07/08/2020



>info:         ***** hspice job concluded
 lic: Release hspice token(s) 
 lic: total license checkout elapse time:        0.27(s)
